# CIF file generated by openbabel 2.4.90, see http://openbabel.sf.net
data_I
_chemical_name_common 'OCUNAC_clean5b'
_cell_length_a 62.8399
_cell_length_b 62.8399
_cell_length_c 62.8399
_cell_angle_alpha 60
_cell_angle_beta 60
_cell_angle_gamma 60
_space_group_name_H-M_alt 'P 1'
_space_group_name_Hall 'P 1'
loop_
    _symmetry_equiv_pos_as_xyz
    x,y,z
loop_
    _atom_site_label
    _atom_site_type_symbol
    _atom_site_fract_x
    _atom_site_fract_y
    _atom_site_fract_z
    _atom_site_occupancy
    Cr0     Cr   0.11423   0.28384   0.65770   1.000
    Cr1     Cr   0.30656   0.35963   0.53034   1.000
    C2      C    0.42240   0.46092   0.54723   1.000
    C3      C    0.36102   0.39955   0.51247   1.000
    C4      C    0.37603   0.41455   0.50403   1.000
    C5      C    0.31679   0.40521   0.42746   1.000
    C6      C    0.31227   0.38220   0.47489   1.000
    C7      C    0.31089   0.40641   0.45167   1.000
    C8      C    0.30458   0.43068   0.45304   1.000
    C9      C    0.18594   0.20837   0.64843   1.000
    C10     C    0.15936   0.25305   0.62501   1.000
    C11     C    0.18218   0.22795   0.62494   1.000
    C12     C    0.20145   0.22390   0.60143   1.000
    C13     C    0.16297   0.26799   0.70516   1.000
    C14     C    0.14404   0.29961   0.66831   1.000
    C15     C    0.15870   0.29240   0.68530   1.000
    C16     C    0.17681   0.26152   0.72083   1.000
    C17     C    0.20310   0.27199   0.73261   1.000
    C18     C    0.18675   0.27927   0.71726   1.000
    C19     C    0.16851   0.31016   0.68190   1.000
    C20     C    0.18222   0.30374   0.69757   1.000
    C21     C    0.28425   0.32264   0.62099   1.000
    C22     C    0.27520   0.31363   0.64841   1.000
    C23     C    0.32224   0.24194   0.53632   1.000
    C24     C    0.34166   0.27304   0.52830   1.000
    C25     C    0.33972   0.24672   0.53987   1.000
    C26     C    0.31889   0.21750   0.54938   1.000
    C27     C    0.07796   0.33257   0.66808   1.000
    C28     C    0.33299   0.19747   0.56615   1.000
    C29     C    0.35438   0.22638   0.55592   1.000
    C30     C    0.35111   0.20213   0.56881   1.000
    O31     O    0.42559   0.46103   0.50214   1.000
    O32     O    0.33327   0.36883   0.52525   1.000
    O33     O    0.40801   0.44352   0.48477   1.000
    O34     O    0.30637   0.38370   0.49673   1.000
    O35     O    0.36082   0.31969   0.47176   1.000
    O36     O    0.14341   0.25626   0.64681   1.000
    O37     O    0.09285   0.28098   0.64670   1.000
    O38     O    0.13396   0.28390   0.67277   1.000
    O39     O    0.14205   0.32149   0.65000   1.000
    O40     O    0.20797   0.24927   0.74940   1.000
    O41     O    0.21218   0.28867   0.72771   1.000
    O42     O    0.30379   0.33926   0.56556   1.000
    O43     O    0.25801   0.29346   0.70249   1.000
    O44     O    0.33112   0.29016   0.51111   1.000
    O45     O    0.27746   0.35332   0.53657   1.000
    O46     O    0.08410   0.30855   0.67227   1.000
    O47     O    0.15737   0.33907   0.59943   1.000
    H48     H    0.40729   0.47622   0.53902   1.000
    H49     H    0.34037   0.40917   0.51532   1.000
    H50     H    0.36649   0.43529   0.50073   1.000
    H51     H    0.32174   0.38695   0.42554   1.000
    H52     H    0.29999   0.43236   0.47131   1.000
    H53     H    0.17176   0.21061   0.66698   1.000
    H54     H    0.19950   0.23842   0.58290   1.000
    H55     H    0.15579   0.25374   0.70849   1.000
    H56     H    0.17998   0.24241   0.73557   1.000
    H57     H    0.16567   0.32917   0.66698   1.000
    H58     H    0.18961   0.31797   0.69394   1.000
    H59     H    0.27242   0.34107   0.61090   1.000
    H60     H    0.25665   0.32549   0.65835   1.000
    H61     H    0.31059   0.25730   0.52408   1.000
    H62     H    0.30483   0.21452   0.54690   1.000
    H63     H    0.36814   0.22928   0.55895   1.000
    H64     H    0.36260   0.18711   0.58131   1.000
    Cr65    Cr   0.28384   0.11423   0.94423   1.000
    Cr66    Cr   0.35963   0.30656   0.80348   1.000
    C67     C    0.46092   0.42240   0.56944   1.000
    C68     C    0.39955   0.36102   0.72696   1.000
    C69     C    0.41455   0.37603   0.70539   1.000
    C70     C    0.40521   0.31679   0.85054   1.000
    C71     C    0.38220   0.31227   0.83063   1.000
    C72     C    0.40641   0.31089   0.83104   1.000
    C73     C    0.43068   0.30458   0.81170   1.000
    C74     C    0.20837   0.18594   0.95726   1.000
    C75     C    0.25305   0.15936   0.96258   1.000
    C76     C    0.22795   0.18218   0.96494   1.000
    C77     C    0.22390   0.20145   0.97322   1.000
    C78     C    0.26799   0.16297   0.86389   1.000
    C79     C    0.29961   0.14404   0.88804   1.000
    C80     C    0.29240   0.15870   0.86360   1.000
    C81     C    0.26152   0.17681   0.84085   1.000
    C82     C    0.27199   0.20310   0.79230   1.000
    C83     C    0.27927   0.18675   0.81672   1.000
    C84     C    0.31016   0.16851   0.83943   1.000
    C85     C    0.30374   0.18222   0.81647   1.000
    C86     C    0.32264   0.28425   0.77212   1.000
    C87     C    0.31363   0.27520   0.76276   1.000
    C88     C    0.24194   0.32224   0.89950   1.000
    C89     C    0.27304   0.34166   0.85700   1.000
    C90     C    0.24672   0.33972   0.87369   1.000
    C91     C    0.21750   0.31889   0.91423   1.000
    C92     C    0.33257   0.07796   0.92138   1.000
    C93     C    0.19747   0.33299   0.90339   1.000
    C94     C    0.22638   0.35438   0.86331   1.000
    C95     C    0.20213   0.35111   0.87794   1.000
    O96     O    0.46103   0.42559   0.61124   1.000
    O97     O    0.36883   0.33327   0.77265   1.000
    O98     O    0.44352   0.40801   0.66370   1.000
    O99     O    0.38370   0.30637   0.81320   1.000
    O100    O    0.31969   0.36082   0.84773   1.000
    O101    O    0.25626   0.14341   0.95352   1.000
    O102    O    0.28098   0.09285   0.97946   1.000
    O103    O    0.28390   0.13396   0.90937   1.000
    O104    O    0.32149   0.14205   0.88647   1.000
    O105    O    0.24927   0.20797   0.79336   1.000
    O106    O    0.28867   0.21218   0.77143   1.000
    O107    O    0.33926   0.30379   0.79140   1.000
    O108    O    0.29346   0.25801   0.74604   1.000
    O109    O    0.29016   0.33112   0.86762   1.000
    O110    O    0.35332   0.27746   0.83264   1.000
    O111    O    0.30855   0.08410   0.93508   1.000
    O112    O    0.33907   0.15737   0.90414   1.000
    H113    H    0.47622   0.40729   0.57747   1.000
    H114    H    0.40917   0.34037   0.73515   1.000
    H115    H    0.43529   0.36649   0.69749   1.000
    H116    H    0.38695   0.32174   0.86577   1.000
    H117    H    0.43236   0.29999   0.79634   1.000
    H118    H    0.21061   0.17176   0.95064   1.000
    H119    H    0.23842   0.19950   0.97918   1.000
    H120    H    0.25374   0.15579   0.88199   1.000
    H121    H    0.24241   0.17998   0.84203   1.000
    H122    H    0.32917   0.16567   0.83819   1.000
    H123    H    0.31797   0.18961   0.79849   1.000
    H124    H    0.34107   0.27242   0.77561   1.000
    H125    H    0.32549   0.25665   0.75951   1.000
    H126    H    0.25730   0.31059   0.90802   1.000
    H127    H    0.21452   0.30483   0.93376   1.000
    H128    H    0.22928   0.36814   0.84363   1.000
    H129    H    0.18711   0.36260   0.86898   1.000
    Cr130   Cr   0.65770   0.94423   0.11423   1.000
    Cr131   Cr   0.53034   0.80348   0.30656   1.000
    C132    C    0.54723   0.56944   0.42240   1.000
    C133    C    0.51247   0.72696   0.36102   1.000
    C134    C    0.50403   0.70539   0.37603   1.000
    C135    C    0.42746   0.85054   0.31679   1.000
    C136    C    0.47489   0.83063   0.31227   1.000
    C137    C    0.45167   0.83104   0.31089   1.000
    C138    C    0.45304   0.81170   0.30458   1.000
    C139    C    0.64843   0.95726   0.18594   1.000
    C140    C    0.62501   0.96258   0.15936   1.000
    C141    C    0.62494   0.96494   0.18218   1.000
    C142    C    0.60143   0.97322   0.20145   1.000
    C143    C    0.70516   0.86389   0.16297   1.000
    C144    C    0.66831   0.88804   0.14404   1.000
    C145    C    0.68530   0.86360   0.15870   1.000
    C146    C    0.72083   0.84085   0.17681   1.000
    C147    C    0.73261   0.79230   0.20310   1.000
    C148    C    0.71726   0.81672   0.18675   1.000
    C149    C    0.68190   0.83943   0.16851   1.000
    C150    C    0.69757   0.81647   0.18222   1.000
    C151    C    0.62099   0.77212   0.28425   1.000
    C152    C    0.64841   0.76276   0.27520   1.000
    C153    C    0.53632   0.89950   0.32224   1.000
    C154    C    0.52830   0.85700   0.34166   1.000
    C155    C    0.53987   0.87369   0.33972   1.000
    C156    C    0.54938   0.91423   0.31889   1.000
    C157    C    0.66808   0.92138   0.07796   1.000
    C158    C    0.56615   0.90339   0.33299   1.000
    C159    C    0.55592   0.86331   0.35438   1.000
    C160    C    0.56881   0.87794   0.35111   1.000
    O161    O    0.50214   0.61124   0.42559   1.000
    O162    O    0.52525   0.77265   0.33327   1.000
    O163    O    0.48477   0.66370   0.40801   1.000
    O164    O    0.49673   0.81320   0.30637   1.000
    O165    O    0.47176   0.84773   0.36082   1.000
    O166    O    0.64681   0.95352   0.14341   1.000
    O167    O    0.64670   0.97946   0.09285   1.000
    O168    O    0.67277   0.90937   0.13396   1.000
    O169    O    0.65000   0.88647   0.14205   1.000
    O170    O    0.74940   0.79336   0.20797   1.000
    O171    O    0.72771   0.77143   0.21218   1.000
    O172    O    0.56556   0.79140   0.30379   1.000
    O173    O    0.70249   0.74604   0.25801   1.000
    O174    O    0.51111   0.86762   0.33112   1.000
    O175    O    0.53657   0.83264   0.27746   1.000
    O176    O    0.67227   0.93508   0.08410   1.000
    O177    O    0.59943   0.90414   0.15737   1.000
    H178    H    0.53902   0.57747   0.40729   1.000
    H179    H    0.51532   0.73515   0.34037   1.000
    H180    H    0.50073   0.69749   0.36649   1.000
    H181    H    0.42554   0.86577   0.32174   1.000
    H182    H    0.47131   0.79634   0.29999   1.000
    H183    H    0.66698   0.95064   0.17176   1.000
    H184    H    0.58290   0.97918   0.19950   1.000
    H185    H    0.70849   0.88199   0.15579   1.000
    H186    H    0.73557   0.84203   0.17998   1.000
    H187    H    0.66698   0.83819   0.16567   1.000
    H188    H    0.69394   0.79849   0.18961   1.000
    H189    H    0.61090   0.77561   0.27242   1.000
    H190    H    0.65835   0.75951   0.25665   1.000
    H191    H    0.52408   0.90802   0.31059   1.000
    H192    H    0.54690   0.93376   0.30483   1.000
    H193    H    0.55895   0.84363   0.36814   1.000
    H194    H    0.58131   0.86898   0.36260   1.000
    Cr195   Cr   0.94423   0.65770   0.28384   1.000
    Cr196   Cr   0.80348   0.53034   0.35963   1.000
    C197    C    0.56944   0.54723   0.46092   1.000
    C198    C    0.72696   0.51247   0.39955   1.000
    C199    C    0.70539   0.50403   0.41455   1.000
    C200    C    0.85054   0.42746   0.40521   1.000
    C201    C    0.83063   0.47489   0.38220   1.000
    C202    C    0.83104   0.45167   0.40641   1.000
    C203    C    0.81170   0.45304   0.43068   1.000
    C204    C    0.95726   0.64843   0.20837   1.000
    C205    C    0.96258   0.62501   0.25305   1.000
    C206    C    0.96494   0.62494   0.22795   1.000
    C207    C    0.97322   0.60143   0.22390   1.000
    C208    C    0.86389   0.70516   0.26799   1.000
    C209    C    0.88804   0.66831   0.29961   1.000
    C210    C    0.86360   0.68530   0.29240   1.000
    C211    C    0.84085   0.72083   0.26152   1.000
    C212    C    0.79230   0.73261   0.27199   1.000
    C213    C    0.81672   0.71726   0.27927   1.000
    C214    C    0.83943   0.68190   0.31016   1.000
    C215    C    0.81647   0.69757   0.30374   1.000
    C216    C    0.77212   0.62099   0.32264   1.000
    C217    C    0.76276   0.64841   0.31363   1.000
    C218    C    0.89950   0.53632   0.24194   1.000
    C219    C    0.85700   0.52830   0.27304   1.000
    C220    C    0.87369   0.53987   0.24672   1.000
    C221    C    0.91423   0.54938   0.21750   1.000
    C222    C    0.92138   0.66808   0.33257   1.000
    C223    C    0.90339   0.56615   0.19747   1.000
    C224    C    0.86331   0.55592   0.22638   1.000
    C225    C    0.87794   0.56881   0.20213   1.000
    O226    O    0.61124   0.50214   0.46103   1.000
    O227    O    0.77265   0.52525   0.36883   1.000
    O228    O    0.66370   0.48477   0.44352   1.000
    O229    O    0.81320   0.49673   0.38370   1.000
    O230    O    0.84773   0.47176   0.31969   1.000
    O231    O    0.95352   0.64681   0.25626   1.000
    O232    O    0.97946   0.64670   0.28098   1.000
    O233    O    0.90937   0.67277   0.28390   1.000
    O234    O    0.88647   0.65000   0.32149   1.000
    O235    O    0.79336   0.74940   0.24927   1.000
    O236    O    0.77143   0.72771   0.28867   1.000
    O237    O    0.79140   0.56556   0.33926   1.000
    O238    O    0.74604   0.70249   0.29346   1.000
    O239    O    0.86762   0.51111   0.29016   1.000
    O240    O    0.83264   0.53657   0.35332   1.000
    O241    O    0.93508   0.67227   0.30855   1.000
    O242    O    0.90414   0.59943   0.33907   1.000
    H243    H    0.57747   0.53902   0.47622   1.000
    H244    H    0.73515   0.51532   0.40917   1.000
    H245    H    0.69749   0.50073   0.43529   1.000
    H246    H    0.86577   0.42554   0.38695   1.000
    H247    H    0.79634   0.47131   0.43236   1.000
    H248    H    0.95064   0.66698   0.21061   1.000
    H249    H    0.97918   0.58290   0.23842   1.000
    H250    H    0.88199   0.70849   0.25374   1.000
    H251    H    0.84203   0.73557   0.24241   1.000
    H252    H    0.83819   0.66698   0.32917   1.000
    H253    H    0.79849   0.69394   0.31797   1.000
    H254    H    0.77561   0.61090   0.34107   1.000
    H255    H    0.75951   0.65835   0.32549   1.000
    H256    H    0.90802   0.52408   0.25730   1.000
    H257    H    0.93376   0.54690   0.21452   1.000
    H258    H    0.84363   0.55895   0.22928   1.000
    H259    H    0.86898   0.58131   0.18711   1.000
    Cr260   Cr   0.65770   0.11423   0.28384   1.000
    Cr261   Cr   0.53034   0.30656   0.35963   1.000
    C262    C    0.54723   0.42240   0.46092   1.000
    C263    C    0.51247   0.36102   0.39955   1.000
    C264    C    0.50403   0.37603   0.41455   1.000
    C265    C    0.42746   0.31679   0.40521   1.000
    C266    C    0.47489   0.31227   0.38220   1.000
    C267    C    0.45167   0.31089   0.40641   1.000
    C268    C    0.45304   0.30458   0.43068   1.000
    C269    C    0.64843   0.18594   0.20837   1.000
    C270    C    0.62501   0.15936   0.25305   1.000
    C271    C    0.62494   0.18218   0.22795   1.000
    C272    C    0.60143   0.20145   0.22390   1.000
    C273    C    0.70516   0.16297   0.26799   1.000
    C274    C    0.66831   0.14404   0.29961   1.000
    C275    C    0.68530   0.15870   0.29240   1.000
    C276    C    0.72083   0.17681   0.26152   1.000
    C277    C    0.73261   0.20310   0.27199   1.000
    C278    C    0.71726   0.18675   0.27927   1.000
    C279    C    0.68190   0.16851   0.31016   1.000
    C280    C    0.69757   0.18222   0.30374   1.000
    C281    C    0.62099   0.28425   0.32264   1.000
    C282    C    0.64841   0.27520   0.31363   1.000
    C283    C    0.53632   0.32224   0.24194   1.000
    C284    C    0.52830   0.34166   0.27304   1.000
    C285    C    0.53987   0.33972   0.24672   1.000
    C286    C    0.54938   0.31889   0.21750   1.000
    C287    C    0.66808   0.07796   0.33257   1.000
    C288    C    0.56615   0.33299   0.19747   1.000
    C289    C    0.55592   0.35438   0.22638   1.000
    C290    C    0.56881   0.35111   0.20213   1.000
    O291    O    0.50214   0.42559   0.46103   1.000
    O292    O    0.52525   0.33327   0.36883   1.000
    O293    O    0.48477   0.40801   0.44352   1.000
    O294    O    0.49673   0.30637   0.38370   1.000
    O295    O    0.47176   0.36082   0.31969   1.000
    O296    O    0.64681   0.14341   0.25626   1.000
    O297    O    0.64670   0.09285   0.28098   1.000
    O298    O    0.67277   0.13396   0.28390   1.000
    O299    O    0.65000   0.14205   0.32149   1.000
    O300    O    0.74940   0.20797   0.24927   1.000
    O301    O    0.72771   0.21218   0.28867   1.000
    O302    O    0.56556   0.30379   0.33926   1.000
    O303    O    0.70249   0.25801   0.29346   1.000
    O304    O    0.51111   0.33112   0.29016   1.000
    O305    O    0.53657   0.27746   0.35332   1.000
    O306    O    0.67227   0.08410   0.30855   1.000
    O307    O    0.59943   0.15737   0.33907   1.000
    H308    H    0.53902   0.40729   0.47622   1.000
    H309    H    0.51532   0.34037   0.40917   1.000
    H310    H    0.50073   0.36649   0.43529   1.000
    H311    H    0.42554   0.32174   0.38695   1.000
    H312    H    0.47131   0.29999   0.43236   1.000
    H313    H    0.66698   0.17176   0.21061   1.000
    H314    H    0.58290   0.19950   0.23842   1.000
    H315    H    0.70849   0.15579   0.25374   1.000
    H316    H    0.73557   0.17998   0.24241   1.000
    H317    H    0.66698   0.16567   0.32917   1.000
    H318    H    0.69394   0.18961   0.31797   1.000
    H319    H    0.61090   0.27242   0.34107   1.000
    H320    H    0.65835   0.25665   0.32549   1.000
    H321    H    0.52408   0.31059   0.25730   1.000
    H322    H    0.54690   0.30483   0.21452   1.000
    H323    H    0.55895   0.36814   0.22928   1.000
    H324    H    0.58131   0.36260   0.18711   1.000
    Cr325   Cr   0.94423   0.28384   0.11423   1.000
    Cr326   Cr   0.80348   0.35963   0.30656   1.000
    C327    C    0.56944   0.46092   0.42240   1.000
    C328    C    0.72696   0.39955   0.36102   1.000
    C329    C    0.70539   0.41455   0.37603   1.000
    C330    C    0.85054   0.40521   0.31679   1.000
    C331    C    0.83063   0.38220   0.31227   1.000
    C332    C    0.83104   0.40641   0.31089   1.000
    C333    C    0.81170   0.43068   0.30458   1.000
    C334    C    0.95726   0.20837   0.18594   1.000
    C335    C    0.96258   0.25305   0.15936   1.000
    C336    C    0.96494   0.22795   0.18218   1.000
    C337    C    0.97322   0.22390   0.20145   1.000
    C338    C    0.86389   0.26799   0.16297   1.000
    C339    C    0.88804   0.29961   0.14404   1.000
    C340    C    0.86360   0.29240   0.15870   1.000
    C341    C    0.84085   0.26152   0.17681   1.000
    C342    C    0.79230   0.27199   0.20310   1.000
    C343    C    0.81672   0.27927   0.18675   1.000
    C344    C    0.83943   0.31016   0.16851   1.000
    C345    C    0.81647   0.30374   0.18222   1.000
    C346    C    0.77212   0.32264   0.28425   1.000
    C347    C    0.76276   0.31363   0.27520   1.000
    C348    C    0.89950   0.24194   0.32224   1.000
    C349    C    0.85700   0.27304   0.34166   1.000
    C350    C    0.87369   0.24672   0.33972   1.000
    C351    C    0.91423   0.21750   0.31889   1.000
    C352    C    0.92138   0.33257   0.07796   1.000
    C353    C    0.90339   0.19747   0.33299   1.000
    C354    C    0.86331   0.22638   0.35438   1.000
    C355    C    0.87794   0.20213   0.35111   1.000
    O356    O    0.61124   0.46103   0.42559   1.000
    O357    O    0.77265   0.36883   0.33327   1.000
    O358    O    0.66370   0.44352   0.40801   1.000
    O359    O    0.81320   0.38370   0.30637   1.000
    O360    O    0.84773   0.31969   0.36082   1.000
    O361    O    0.95352   0.25626   0.14341   1.000
    O362    O    0.97946   0.28098   0.09285   1.000
    O363    O    0.90937   0.28390   0.13396   1.000
    O364    O    0.88647   0.32149   0.14205   1.000
    O365    O    0.79336   0.24927   0.20797   1.000
    O366    O    0.77143   0.28867   0.21218   1.000
    O367    O    0.79140   0.33926   0.30379   1.000
    O368    O    0.74604   0.29346   0.25801   1.000
    O369    O    0.86762   0.29016   0.33112   1.000
    O370    O    0.83264   0.35332   0.27746   1.000
    O371    O    0.93508   0.30855   0.08410   1.000
    O372    O    0.90414   0.33907   0.15737   1.000
    H373    H    0.57747   0.47622   0.40729   1.000
    H374    H    0.73515   0.40917   0.34037   1.000
    H375    H    0.69749   0.43529   0.36649   1.000
    H376    H    0.86577   0.38695   0.32174   1.000
    H377    H    0.79634   0.43236   0.29999   1.000
    H378    H    0.95064   0.21061   0.17176   1.000
    H379    H    0.97918   0.23842   0.19950   1.000
    H380    H    0.88199   0.25374   0.15579   1.000
    H381    H    0.84203   0.24241   0.17998   1.000
    H382    H    0.83819   0.32917   0.16567   1.000
    H383    H    0.79849   0.31797   0.18961   1.000
    H384    H    0.77561   0.34107   0.27242   1.000
    H385    H    0.75951   0.32549   0.25665   1.000
    H386    H    0.90802   0.25730   0.31059   1.000
    H387    H    0.93376   0.21452   0.30483   1.000
    H388    H    0.84363   0.22928   0.36814   1.000
    H389    H    0.86898   0.18711   0.36260   1.000
    Cr390   Cr   0.11423   0.65770   0.94423   1.000
    Cr391   Cr   0.30656   0.53034   0.80348   1.000
    C392    C    0.42240   0.54723   0.56944   1.000
    C393    C    0.36102   0.51247   0.72696   1.000
    C394    C    0.37603   0.50403   0.70539   1.000
    C395    C    0.31679   0.42746   0.85054   1.000
    C396    C    0.31227   0.47489   0.83063   1.000
    C397    C    0.31089   0.45167   0.83104   1.000
    C398    C    0.30458   0.45304   0.81170   1.000
    C399    C    0.18594   0.64843   0.95726   1.000
    C400    C    0.15936   0.62501   0.96258   1.000
    C401    C    0.18218   0.62494   0.96494   1.000
    C402    C    0.20145   0.60143   0.97322   1.000
    C403    C    0.16297   0.70516   0.86389   1.000
    C404    C    0.14404   0.66831   0.88804   1.000
    C405    C    0.15870   0.68530   0.86360   1.000
    C406    C    0.17681   0.72083   0.84085   1.000
    C407    C    0.20310   0.73261   0.79230   1.000
    C408    C    0.18675   0.71726   0.81672   1.000
    C409    C    0.16851   0.68190   0.83943   1.000
    C410    C    0.18222   0.69757   0.81647   1.000
    C411    C    0.28425   0.62099   0.77212   1.000
    C412    C    0.27520   0.64841   0.76276   1.000
    C413    C    0.32224   0.53632   0.89950   1.000
    C414    C    0.34166   0.52830   0.85700   1.000
    C415    C    0.33972   0.53987   0.87369   1.000
    C416    C    0.31889   0.54938   0.91423   1.000
    C417    C    0.07796   0.66808   0.92138   1.000
    C418    C    0.33299   0.56615   0.90339   1.000
    C419    C    0.35438   0.55592   0.86331   1.000
    C420    C    0.35111   0.56881   0.87794   1.000
    O421    O    0.42559   0.50214   0.61124   1.000
    O422    O    0.33327   0.52525   0.77265   1.000
    O423    O    0.40801   0.48477   0.66370   1.000
    O424    O    0.30637   0.49673   0.81320   1.000
    O425    O    0.36082   0.47176   0.84773   1.000
    O426    O    0.14341   0.64681   0.95352   1.000
    O427    O    0.09285   0.64670   0.97946   1.000
    O428    O    0.13396   0.67277   0.90937   1.000
    O429    O    0.14205   0.65000   0.88647   1.000
    O430    O    0.20797   0.74940   0.79336   1.000
    O431    O    0.21218   0.72771   0.77143   1.000
    O432    O    0.30379   0.56556   0.79140   1.000
    O433    O    0.25801   0.70249   0.74604   1.000
    O434    O    0.33112   0.51111   0.86762   1.000
    O435    O    0.27746   0.53657   0.83264   1.000
    O436    O    0.08410   0.67227   0.93508   1.000
    O437    O    0.15737   0.59943   0.90414   1.000
    H438    H    0.40729   0.53902   0.57747   1.000
    H439    H    0.34037   0.51532   0.73515   1.000
    H440    H    0.36649   0.50073   0.69749   1.000
    H441    H    0.32174   0.42554   0.86577   1.000
    H442    H    0.29999   0.47131   0.79634   1.000
    H443    H    0.17176   0.66698   0.95064   1.000
    H444    H    0.19950   0.58290   0.97918   1.000
    H445    H    0.15579   0.70849   0.88199   1.000
    H446    H    0.17998   0.73557   0.84203   1.000
    H447    H    0.16567   0.66698   0.83819   1.000
    H448    H    0.18961   0.69394   0.79849   1.000
    H449    H    0.27242   0.61090   0.77561   1.000
    H450    H    0.25665   0.65835   0.75951   1.000
    H451    H    0.31059   0.52408   0.90802   1.000
    H452    H    0.30483   0.54690   0.93376   1.000
    H453    H    0.36814   0.55895   0.84363   1.000
    H454    H    0.36260   0.58131   0.86898   1.000
    Cr455   Cr   0.28384   0.94423   0.65770   1.000
    Cr456   Cr   0.35963   0.80348   0.53034   1.000
    C457    C    0.46092   0.56944   0.54723   1.000
    C458    C    0.39955   0.72696   0.51247   1.000
    C459    C    0.41455   0.70539   0.50403   1.000
    C460    C    0.40521   0.85054   0.42746   1.000
    C461    C    0.38220   0.83063   0.47489   1.000
    C462    C    0.40641   0.83104   0.45167   1.000
    C463    C    0.43068   0.81170   0.45304   1.000
    C464    C    0.20837   0.95726   0.64843   1.000
    C465    C    0.25305   0.96258   0.62501   1.000
    C466    C    0.22795   0.96494   0.62494   1.000
    C467    C    0.22390   0.97322   0.60143   1.000
    C468    C    0.26799   0.86389   0.70516   1.000
    C469    C    0.29961   0.88804   0.66831   1.000
    C470    C    0.29240   0.86360   0.68530   1.000
    C471    C    0.26152   0.84085   0.72083   1.000
    C472    C    0.27199   0.79230   0.73261   1.000
    C473    C    0.27927   0.81672   0.71726   1.000
    C474    C    0.31016   0.83943   0.68190   1.000
    C475    C    0.30374   0.81647   0.69757   1.000
    C476    C    0.32264   0.77212   0.62099   1.000
    C477    C    0.31363   0.76276   0.64841   1.000
    C478    C    0.24194   0.89950   0.53632   1.000
    C479    C    0.27304   0.85700   0.52830   1.000
    C480    C    0.24672   0.87369   0.53987   1.000
    C481    C    0.21750   0.91423   0.54938   1.000
    C482    C    0.33257   0.92138   0.66808   1.000
    C483    C    0.19747   0.90339   0.56615   1.000
    C484    C    0.22638   0.86331   0.55592   1.000
    C485    C    0.20213   0.87794   0.56881   1.000
    O486    O    0.46103   0.61124   0.50214   1.000
    O487    O    0.36883   0.77265   0.52525   1.000
    O488    O    0.44352   0.66370   0.48477   1.000
    O489    O    0.38370   0.81320   0.49673   1.000
    O490    O    0.31969   0.84773   0.47176   1.000
    O491    O    0.25626   0.95352   0.64681   1.000
    O492    O    0.28098   0.97946   0.64670   1.000
    O493    O    0.28390   0.90937   0.67277   1.000
    O494    O    0.32149   0.88647   0.65000   1.000
    O495    O    0.24927   0.79336   0.74940   1.000
    O496    O    0.28867   0.77143   0.72771   1.000
    O497    O    0.33926   0.79140   0.56556   1.000
    O498    O    0.29346   0.74604   0.70249   1.000
    O499    O    0.29016   0.86762   0.51111   1.000
    O500    O    0.35332   0.83264   0.53657   1.000
    O501    O    0.30855   0.93508   0.67227   1.000
    O502    O    0.33907   0.90414   0.59943   1.000
    H503    H    0.47622   0.57747   0.53902   1.000
    H504    H    0.40917   0.73515   0.51532   1.000
    H505    H    0.43529   0.69749   0.50073   1.000
    H506    H    0.38695   0.86577   0.42554   1.000
    H507    H    0.43236   0.79634   0.47131   1.000
    H508    H    0.21061   0.95064   0.66698   1.000
    H509    H    0.23842   0.97918   0.58290   1.000
    H510    H    0.25374   0.88199   0.70849   1.000
    H511    H    0.24241   0.84203   0.73557   1.000
    H512    H    0.32917   0.83819   0.66698   1.000
    H513    H    0.31797   0.79849   0.69394   1.000
    H514    H    0.34107   0.77561   0.61090   1.000
    H515    H    0.32549   0.75951   0.65835   1.000
    H516    H    0.25730   0.90802   0.52408   1.000
    H517    H    0.21452   0.93376   0.54690   1.000
    H518    H    0.22928   0.84363   0.55895   1.000
    H519    H    0.18711   0.86898   0.58131   1.000
    Cr520   Cr   0.28384   0.65770   0.11423   1.000
    Cr521   Cr   0.35963   0.53034   0.30656   1.000
    C522    C    0.46092   0.54723   0.42240   1.000
    C523    C    0.39955   0.51247   0.36102   1.000
    C524    C    0.41455   0.50403   0.37603   1.000
    C525    C    0.40521   0.42746   0.31679   1.000
    C526    C    0.38220   0.47489   0.31227   1.000
    C527    C    0.40641   0.45167   0.31089   1.000
    C528    C    0.43068   0.45304   0.30458   1.000
    C529    C    0.20837   0.64843   0.18594   1.000
    C530    C    0.25305   0.62501   0.15936   1.000
    C531    C    0.22795   0.62494   0.18218   1.000
    C532    C    0.22390   0.60143   0.20145   1.000
    C533    C    0.26799   0.70516   0.16297   1.000
    C534    C    0.29961   0.66831   0.14404   1.000
    C535    C    0.29240   0.68530   0.15870   1.000
    C536    C    0.26152   0.72083   0.17681   1.000
    C537    C    0.27199   0.73261   0.20310   1.000
    C538    C    0.27927   0.71726   0.18675   1.000
    C539    C    0.31016   0.68190   0.16851   1.000
    C540    C    0.30374   0.69757   0.18222   1.000
    C541    C    0.32264   0.62099   0.28425   1.000
    C542    C    0.31363   0.64841   0.27520   1.000
    C543    C    0.24194   0.53632   0.32224   1.000
    C544    C    0.27304   0.52830   0.34166   1.000
    C545    C    0.24672   0.53987   0.33972   1.000
    C546    C    0.21750   0.54938   0.31889   1.000
    C547    C    0.33257   0.66808   0.07796   1.000
    C548    C    0.19747   0.56615   0.33299   1.000
    C549    C    0.22638   0.55592   0.35438   1.000
    C550    C    0.20213   0.56881   0.35111   1.000
    O551    O    0.46103   0.50214   0.42559   1.000
    O552    O    0.36883   0.52525   0.33327   1.000
    O553    O    0.44352   0.48477   0.40801   1.000
    O554    O    0.38370   0.49673   0.30637   1.000
    O555    O    0.31969   0.47176   0.36082   1.000
    O556    O    0.25626   0.64681   0.14341   1.000
    O557    O    0.28098   0.64670   0.09285   1.000
    O558    O    0.28390   0.67277   0.13396   1.000
    O559    O    0.32149   0.65000   0.14205   1.000
    O560    O    0.24927   0.74940   0.20797   1.000
    O561    O    0.28867   0.72771   0.21218   1.000
    O562    O    0.33926   0.56556   0.30379   1.000
    O563    O    0.29346   0.70249   0.25801   1.000
    O564    O    0.29016   0.51111   0.33112   1.000
    O565    O    0.35332   0.53657   0.27746   1.000
    O566    O    0.30855   0.67227   0.08410   1.000
    O567    O    0.33907   0.59943   0.15737   1.000
    H568    H    0.47622   0.53902   0.40729   1.000
    H569    H    0.40917   0.51532   0.34037   1.000
    H570    H    0.43529   0.50073   0.36649   1.000
    H571    H    0.38695   0.42554   0.32174   1.000
    H572    H    0.43236   0.47131   0.29999   1.000
    H573    H    0.21061   0.66698   0.17176   1.000
    H574    H    0.23842   0.58290   0.19950   1.000
    H575    H    0.25374   0.70849   0.15579   1.000
    H576    H    0.24241   0.73557   0.17998   1.000
    H577    H    0.32917   0.66698   0.16567   1.000
    H578    H    0.31797   0.69394   0.18961   1.000
    H579    H    0.34107   0.61090   0.27242   1.000
    H580    H    0.32549   0.65835   0.25665   1.000
    H581    H    0.25730   0.52408   0.31059   1.000
    H582    H    0.21452   0.54690   0.30483   1.000
    H583    H    0.22928   0.55895   0.36814   1.000
    H584    H    0.18711   0.58131   0.36260   1.000
    Cr585   Cr   0.11423   0.94423   0.28384   1.000
    Cr586   Cr   0.30656   0.80348   0.35963   1.000
    C587    C    0.42240   0.56944   0.46092   1.000
    C588    C    0.36102   0.72696   0.39955   1.000
    C589    C    0.37603   0.70539   0.41455   1.000
    C590    C    0.31679   0.85054   0.40521   1.000
    C591    C    0.31227   0.83063   0.38220   1.000
    C592    C    0.31089   0.83104   0.40641   1.000
    C593    C    0.30458   0.81170   0.43068   1.000
    C594    C    0.18594   0.95726   0.20837   1.000
    C595    C    0.15936   0.96258   0.25305   1.000
    C596    C    0.18218   0.96494   0.22795   1.000
    C597    C    0.20145   0.97322   0.22390   1.000
    C598    C    0.16297   0.86389   0.26799   1.000
    C599    C    0.14404   0.88804   0.29961   1.000
    C600    C    0.15870   0.86360   0.29240   1.000
    C601    C    0.17681   0.84085   0.26152   1.000
    C602    C    0.20310   0.79230   0.27199   1.000
    C603    C    0.18675   0.81672   0.27927   1.000
    C604    C    0.16851   0.83943   0.31016   1.000
    C605    C    0.18222   0.81647   0.30374   1.000
    C606    C    0.28425   0.77212   0.32264   1.000
    C607    C    0.27520   0.76276   0.31363   1.000
    C608    C    0.32224   0.89950   0.24194   1.000
    C609    C    0.34166   0.85700   0.27304   1.000
    C610    C    0.33972   0.87369   0.24672   1.000
    C611    C    0.31889   0.91423   0.21750   1.000
    C612    C    0.07796   0.92138   0.33257   1.000
    C613    C    0.33299   0.90339   0.19747   1.000
    C614    C    0.35438   0.86331   0.22638   1.000
    C615    C    0.35111   0.87794   0.20213   1.000
    O616    O    0.42559   0.61124   0.46103   1.000
    O617    O    0.33327   0.77265   0.36883   1.000
    O618    O    0.40801   0.66370   0.44352   1.000
    O619    O    0.30637   0.81320   0.38370   1.000
    O620    O    0.36082   0.84773   0.31969   1.000
    O621    O    0.14341   0.95352   0.25626   1.000
    O622    O    0.09285   0.97946   0.28098   1.000
    O623    O    0.13396   0.90937   0.28390   1.000
    O624    O    0.14205   0.88647   0.32149   1.000
    O625    O    0.20797   0.79336   0.24927   1.000
    O626    O    0.21218   0.77143   0.28867   1.000
    O627    O    0.30379   0.79140   0.33926   1.000
    O628    O    0.25801   0.74604   0.29346   1.000
    O629    O    0.33112   0.86762   0.29016   1.000
    O630    O    0.27746   0.83264   0.35332   1.000
    O631    O    0.08410   0.93508   0.30855   1.000
    O632    O    0.15737   0.90414   0.33907   1.000
    H633    H    0.40729   0.57747   0.47622   1.000
    H634    H    0.34037   0.73515   0.40917   1.000
    H635    H    0.36649   0.69749   0.43529   1.000
    H636    H    0.32174   0.86577   0.38695   1.000
    H637    H    0.29999   0.79634   0.43236   1.000
    H638    H    0.17176   0.95064   0.21061   1.000
    H639    H    0.19950   0.97918   0.23842   1.000
    H640    H    0.15579   0.88199   0.25374   1.000
    H641    H    0.17998   0.84203   0.24241   1.000
    H642    H    0.16567   0.83819   0.32917   1.000
    H643    H    0.18961   0.79849   0.31797   1.000
    H644    H    0.27242   0.77561   0.34107   1.000
    H645    H    0.25665   0.75951   0.32549   1.000
    H646    H    0.31059   0.90802   0.25730   1.000
    H647    H    0.30483   0.93376   0.21452   1.000
    H648    H    0.36814   0.84363   0.22928   1.000
    H649    H    0.36260   0.86898   0.18711   1.000
    Cr650   Cr   0.94423   0.11423   0.65770   1.000
    Cr651   Cr   0.80348   0.30656   0.53034   1.000
    C652    C    0.56944   0.42240   0.54723   1.000
    C653    C    0.72696   0.36102   0.51247   1.000
    C654    C    0.70539   0.37603   0.50403   1.000
    C655    C    0.85054   0.31679   0.42746   1.000
    C656    C    0.83063   0.31227   0.47489   1.000
    C657    C    0.83104   0.31089   0.45167   1.000
    C658    C    0.81170   0.30458   0.45304   1.000
    C659    C    0.95726   0.18594   0.64843   1.000
    C660    C    0.96258   0.15936   0.62501   1.000
    C661    C    0.96494   0.18218   0.62494   1.000
    C662    C    0.97322   0.20145   0.60143   1.000
    C663    C    0.86389   0.16297   0.70516   1.000
    C664    C    0.88804   0.14404   0.66831   1.000
    C665    C    0.86360   0.15870   0.68530   1.000
    C666    C    0.84085   0.17681   0.72083   1.000
    C667    C    0.79230   0.20310   0.73261   1.000
    C668    C    0.81672   0.18675   0.71726   1.000
    C669    C    0.83943   0.16851   0.68190   1.000
    C670    C    0.81647   0.18222   0.69757   1.000
    C671    C    0.77212   0.28425   0.62099   1.000
    C672    C    0.76276   0.27520   0.64841   1.000
    C673    C    0.89950   0.32224   0.53632   1.000
    C674    C    0.85700   0.34166   0.52830   1.000
    C675    C    0.87369   0.33972   0.53987   1.000
    C676    C    0.91423   0.31889   0.54938   1.000
    C677    C    0.92138   0.07796   0.66808   1.000
    C678    C    0.90339   0.33299   0.56615   1.000
    C679    C    0.86331   0.35438   0.55592   1.000
    C680    C    0.87794   0.35111   0.56881   1.000
    O681    O    0.61124   0.42559   0.50214   1.000
    O682    O    0.77265   0.33327   0.52525   1.000
    O683    O    0.66370   0.40801   0.48477   1.000
    O684    O    0.81320   0.30637   0.49673   1.000
    O685    O    0.84773   0.36082   0.47176   1.000
    O686    O    0.95352   0.14341   0.64681   1.000
    O687    O    0.97946   0.09285   0.64670   1.000
    O688    O    0.90937   0.13396   0.67277   1.000
    O689    O    0.88647   0.14205   0.65000   1.000
    O690    O    0.79336   0.20797   0.74940   1.000
    O691    O    0.77143   0.21218   0.72771   1.000
    O692    O    0.79140   0.30379   0.56556   1.000
    O693    O    0.74604   0.25801   0.70249   1.000
    O694    O    0.86762   0.33112   0.51111   1.000
    O695    O    0.83264   0.27746   0.53657   1.000
    O696    O    0.93508   0.08410   0.67227   1.000
    O697    O    0.90414   0.15737   0.59943   1.000
    H698    H    0.57747   0.40729   0.53902   1.000
    H699    H    0.73515   0.34037   0.51532   1.000
    H700    H    0.69749   0.36649   0.50073   1.000
    H701    H    0.86577   0.32174   0.42554   1.000
    H702    H    0.79634   0.29999   0.47131   1.000
    H703    H    0.95064   0.17176   0.66698   1.000
    H704    H    0.97918   0.19950   0.58290   1.000
    H705    H    0.88199   0.15579   0.70849   1.000
    H706    H    0.84203   0.17998   0.73557   1.000
    H707    H    0.83819   0.16567   0.66698   1.000
    H708    H    0.79849   0.18961   0.69394   1.000
    H709    H    0.77561   0.27242   0.61090   1.000
    H710    H    0.75951   0.25665   0.65835   1.000
    H711    H    0.90802   0.31059   0.52408   1.000
    H712    H    0.93376   0.30483   0.54690   1.000
    H713    H    0.84363   0.36814   0.55895   1.000
    H714    H    0.86898   0.36260   0.58131   1.000
    Cr715   Cr   0.65770   0.28384   0.94423   1.000
    Cr716   Cr   0.53034   0.35963   0.80348   1.000
    C717    C    0.54723   0.46092   0.56944   1.000
    C718    C    0.51247   0.39955   0.72696   1.000
    C719    C    0.50403   0.41455   0.70539   1.000
    C720    C    0.42746   0.40521   0.85054   1.000
    C721    C    0.47489   0.38220   0.83063   1.000
    C722    C    0.45167   0.40641   0.83104   1.000
    C723    C    0.45304   0.43068   0.81170   1.000
    C724    C    0.64843   0.20837   0.95726   1.000
    C725    C    0.62501   0.25305   0.96258   1.000
    C726    C    0.62494   0.22795   0.96494   1.000
    C727    C    0.60143   0.22390   0.97322   1.000
    C728    C    0.70516   0.26799   0.86389   1.000
    C729    C    0.66831   0.29961   0.88804   1.000
    C730    C    0.68530   0.29240   0.86360   1.000
    C731    C    0.72083   0.26152   0.84085   1.000
    C732    C    0.73261   0.27199   0.79230   1.000
    C733    C    0.71726   0.27927   0.81672   1.000
    C734    C    0.68190   0.31016   0.83943   1.000
    C735    C    0.69757   0.30374   0.81647   1.000
    C736    C    0.62099   0.32264   0.77212   1.000
    C737    C    0.64841   0.31363   0.76276   1.000
    C738    C    0.53632   0.24194   0.89950   1.000
    C739    C    0.52830   0.27304   0.85700   1.000
    C740    C    0.53987   0.24672   0.87369   1.000
    C741    C    0.54938   0.21750   0.91423   1.000
    C742    C    0.66808   0.33257   0.92138   1.000
    C743    C    0.56615   0.19747   0.90339   1.000
    C744    C    0.55592   0.22638   0.86331   1.000
    C745    C    0.56881   0.20213   0.87794   1.000
    O746    O    0.50214   0.46103   0.61124   1.000
    O747    O    0.52525   0.36883   0.77265   1.000
    O748    O    0.48477   0.44352   0.66370   1.000
    O749    O    0.49673   0.38370   0.81320   1.000
    O750    O    0.47176   0.31969   0.84773   1.000
    O751    O    0.64681   0.25626   0.95352   1.000
    O752    O    0.64670   0.28098   0.97946   1.000
    O753    O    0.67277   0.28390   0.90937   1.000
    O754    O    0.65000   0.32149   0.88647   1.000
    O755    O    0.74940   0.24927   0.79336   1.000
    O756    O    0.72771   0.28867   0.77143   1.000
    O757    O    0.56556   0.33926   0.79140   1.000
    O758    O    0.70249   0.29346   0.74604   1.000
    O759    O    0.51111   0.29016   0.86762   1.000
    O760    O    0.53657   0.35332   0.83264   1.000
    O761    O    0.67227   0.30855   0.93508   1.000
    O762    O    0.59943   0.33907   0.90414   1.000
    H763    H    0.53902   0.47622   0.57747   1.000
    H764    H    0.51532   0.40917   0.73515   1.000
    H765    H    0.50073   0.43529   0.69749   1.000
    H766    H    0.42554   0.38695   0.86577   1.000
    H767    H    0.47131   0.43236   0.79634   1.000
    H768    H    0.66698   0.21061   0.95064   1.000
    H769    H    0.58290   0.23842   0.97918   1.000
    H770    H    0.70849   0.25374   0.88199   1.000
    H771    H    0.73557   0.24241   0.84203   1.000
    H772    H    0.66698   0.32917   0.83819   1.000
    H773    H    0.69394   0.31797   0.79849   1.000
    H774    H    0.61090   0.34107   0.77561   1.000
    H775    H    0.65835   0.32549   0.75951   1.000
    H776    H    0.52408   0.25730   0.90802   1.000
    H777    H    0.54690   0.21452   0.93376   1.000
    H778    H    0.55895   0.22928   0.84363   1.000
    H779    H    0.58131   0.18711   0.86898   1.000
    Cr780   Cr   0.13577   0.96616   0.30577   1.000
    Cr781   Cr   0.94344   0.89037   0.44652   1.000
    C782    C    0.82760   0.78908   0.68056   1.000
    C783    C    0.88898   0.85045   0.52304   1.000
    C784    C    0.87397   0.83545   0.54461   1.000
    C785    C    0.93321   0.84479   0.39946   1.000
    C786    C    0.93773   0.86780   0.41937   1.000
    C787    C    0.93911   0.84359   0.41896   1.000
    C788    C    0.94542   0.81932   0.43830   1.000
    C789    C    0.06406   0.04163   0.29274   1.000
    C790    C    0.09064   0.99695   0.28742   1.000
    C791    C    0.06782   0.02205   0.28506   1.000
    C792    C    0.04855   0.02610   0.27678   1.000
    C793    C    0.08703   0.98201   0.38611   1.000
    C794    C    0.10596   0.95039   0.36196   1.000
    C795    C    0.09130   0.95760   0.38640   1.000
    C796    C    0.07319   0.98848   0.40915   1.000
    C797    C    0.04690   0.97801   0.45770   1.000
    C798    C    0.06325   0.97073   0.43328   1.000
    C799    C    0.08149   0.93984   0.41057   1.000
    C800    C    0.06778   0.94626   0.43353   1.000
    C801    C    0.96575   0.92736   0.47788   1.000
    C802    C    0.97480   0.93637   0.48724   1.000
    C803    C    0.92776   0.00806   0.35050   1.000
    C804    C    0.90834   0.97696   0.39300   1.000
    C805    C    0.91028   0.00328   0.37631   1.000
    C806    C    0.93111   0.03250   0.33577   1.000
    C807    C    0.17204   0.91743   0.32862   1.000
    C808    C    0.91701   0.05253   0.34661   1.000
    C809    C    0.89562   0.02362   0.38669   1.000
    C810    C    0.89889   0.04787   0.37206   1.000
    O811    O    0.82441   0.78897   0.63876   1.000
    O812    O    0.91673   0.88117   0.47735   1.000
    O813    O    0.84199   0.80648   0.58630   1.000
    O814    O    0.94363   0.86630   0.43680   1.000
    O815    O    0.88918   0.93031   0.40227   1.000
    O816    O    0.10659   0.99374   0.29648   1.000
    O817    O    0.15715   0.96902   0.27054   1.000
    O818    O    0.11604   0.96610   0.34063   1.000
    O819    O    0.10795   0.92851   0.36353   1.000
    O820    O    0.04203   0.00073   0.45664   1.000
    O821    O    0.03782   0.96133   0.47857   1.000
    O822    O    0.94621   0.91074   0.45860   1.000
    O823    O    0.99199   0.95654   0.50396   1.000
    O824    O    0.91888   0.95984   0.38238   1.000
    O825    O    0.97254   0.89668   0.41736   1.000
    O826    O    0.16590   0.94145   0.31492   1.000
    O827    O    0.09263   0.91093   0.34586   1.000
    H828    H    0.84271   0.77378   0.67253   1.000
    H829    H    0.90963   0.84083   0.51485   1.000
    H830    H    0.88351   0.81471   0.55251   1.000
    H831    H    0.92826   0.86305   0.38423   1.000
    H832    H    0.95001   0.81764   0.45366   1.000
    H833    H    0.07824   0.03939   0.29936   1.000
    H834    H    0.05050   0.01158   0.27082   1.000
    H835    H    0.09421   0.99626   0.36801   1.000
    H836    H    0.07002   0.00759   0.40797   1.000
    H837    H    0.08433   0.92083   0.41181   1.000
    H838    H    0.06039   0.93203   0.45151   1.000
    H839    H    0.97758   0.90893   0.47439   1.000
    H840    H    0.99335   0.92451   0.49049   1.000
    H841    H    0.93941   0.99270   0.34198   1.000
    H842    H    0.94517   0.03548   0.31624   1.000
    H843    H    0.88186   0.02072   0.40637   1.000
    H844    H    0.88740   0.06289   0.38102   1.000
    Cr845   Cr   0.96616   0.13577   0.59230   1.000
    Cr846   Cr   0.89037   0.94344   0.71966   1.000
    C847    C    0.78908   0.82760   0.70277   1.000
    C848    C    0.85045   0.88898   0.73753   1.000
    C849    C    0.83545   0.87397   0.74597   1.000
    C850    C    0.84479   0.93321   0.82254   1.000
    C851    C    0.86780   0.93773   0.77511   1.000
    C852    C    0.84359   0.93911   0.79833   1.000
    C853    C    0.81932   0.94542   0.79696   1.000
    C854    C    0.04163   0.06406   0.60157   1.000
    C855    C    0.99695   0.09064   0.62499   1.000
    C856    C    0.02205   0.06782   0.62506   1.000
    C857    C    0.02610   0.04855   0.64857   1.000
    C858    C    0.98201   0.08703   0.54484   1.000
    C859    C    0.95039   0.10596   0.58169   1.000
    C860    C    0.95760   0.09130   0.56470   1.000
    C861    C    0.98848   0.07319   0.52917   1.000
    C862    C    0.97801   0.04690   0.51739   1.000
    C863    C    0.97073   0.06325   0.53274   1.000
    C864    C    0.93984   0.08149   0.56810   1.000
    C865    C    0.94626   0.06778   0.55243   1.000
    C866    C    0.92736   0.96575   0.62901   1.000
    C867    C    0.93637   0.97480   0.60159   1.000
    C868    C    0.00806   0.92776   0.71368   1.000
    C869    C    0.97696   0.90834   0.72170   1.000
    C870    C    0.00328   0.91028   0.71013   1.000
    C871    C    0.03250   0.93111   0.70062   1.000
    C872    C    0.91743   0.17204   0.58192   1.000
    C873    C    0.05253   0.91701   0.68385   1.000
    C874    C    0.02362   0.89562   0.69408   1.000
    C875    C    0.04787   0.89889   0.68119   1.000
    O876    O    0.78897   0.82441   0.74786   1.000
    O877    O    0.88117   0.91673   0.72475   1.000
    O878    O    0.80648   0.84199   0.76523   1.000
    O879    O    0.86630   0.94363   0.75327   1.000
    O880    O    0.93031   0.88918   0.77824   1.000
    O881    O    0.99374   0.10659   0.60319   1.000
    O882    O    0.96902   0.15715   0.60330   1.000
    O883    O    0.96610   0.11604   0.57723   1.000
    O884    O    0.92851   0.10795   0.60000   1.000
    O885    O    0.00073   0.04203   0.50060   1.000
    O886    O    0.96133   0.03782   0.52229   1.000
    O887    O    0.91074   0.94621   0.68444   1.000
    O888    O    0.95654   0.99199   0.54751   1.000
    O889    O    0.95984   0.91888   0.73889   1.000
    O890    O    0.89668   0.97254   0.71343   1.000
    O891    O    0.94145   0.16590   0.57773   1.000
    O892    O    0.91093   0.09263   0.65057   1.000
    H893    H    0.77378   0.84271   0.71098   1.000
    H894    H    0.84083   0.90963   0.73468   1.000
    H895    H    0.81471   0.88351   0.74927   1.000
    H896    H    0.86305   0.92826   0.82446   1.000
    H897    H    0.81764   0.95001   0.77869   1.000
    H898    H    0.03939   0.07824   0.58302   1.000
    H899    H    0.01158   0.05050   0.66710   1.000
    H900    H    0.99626   0.09421   0.54151   1.000
    H901    H    0.00759   0.07002   0.51443   1.000
    H902    H    0.92083   0.08433   0.58302   1.000
    H903    H    0.93203   0.06039   0.55606   1.000
    H904    H    0.90893   0.97758   0.63910   1.000
    H905    H    0.92451   0.99335   0.59165   1.000
    H906    H    0.99270   0.93941   0.72592   1.000
    H907    H    0.03548   0.94517   0.70310   1.000
    H908    H    0.02072   0.88186   0.69105   1.000
    H909    H    0.06289   0.88740   0.66869   1.000
    Cr910   Cr   0.59230   0.30577   0.96616   1.000
    Cr911   Cr   0.71966   0.44652   0.89037   1.000
    C912    C    0.70277   0.68056   0.78908   1.000
    C913    C    0.73753   0.52304   0.85045   1.000
    C914    C    0.74597   0.54461   0.83545   1.000
    C915    C    0.82254   0.39946   0.84479   1.000
    C916    C    0.77511   0.41937   0.86780   1.000
    C917    C    0.79833   0.41896   0.84359   1.000
    C918    C    0.79696   0.43830   0.81932   1.000
    C919    C    0.60157   0.29274   0.04163   1.000
    C920    C    0.62499   0.28742   0.99695   1.000
    C921    C    0.62506   0.28506   0.02205   1.000
    C922    C    0.64857   0.27678   0.02610   1.000
    C923    C    0.54484   0.38611   0.98201   1.000
    C924    C    0.58169   0.36196   0.95039   1.000
    C925    C    0.56470   0.38640   0.95760   1.000
    C926    C    0.52917   0.40915   0.98848   1.000
    C927    C    0.51739   0.45770   0.97801   1.000
    C928    C    0.53274   0.43328   0.97073   1.000
    C929    C    0.56810   0.41057   0.93984   1.000
    C930    C    0.55243   0.43353   0.94626   1.000
    C931    C    0.62901   0.47788   0.92736   1.000
    C932    C    0.60159   0.48724   0.93637   1.000
    C933    C    0.71368   0.35050   0.00806   1.000
    C934    C    0.72170   0.39300   0.97696   1.000
    C935    C    0.71013   0.37631   0.00328   1.000
    C936    C    0.70062   0.33577   0.03250   1.000
    C937    C    0.58192   0.32862   0.91743   1.000
    C938    C    0.68385   0.34661   0.05253   1.000
    C939    C    0.69408   0.38669   0.02362   1.000
    C940    C    0.68119   0.37206   0.04787   1.000
    O941    O    0.74786   0.63876   0.78897   1.000
    O942    O    0.72475   0.47735   0.88117   1.000
    O943    O    0.76523   0.58630   0.80648   1.000
    O944    O    0.75327   0.43680   0.86630   1.000
    O945    O    0.77824   0.40227   0.93031   1.000
    O946    O    0.60319   0.29648   0.99374   1.000
    O947    O    0.60330   0.27054   0.96902   1.000
    O948    O    0.57723   0.34063   0.96610   1.000
    O949    O    0.60000   0.36353   0.92851   1.000
    O950    O    0.50060   0.45664   0.00073   1.000
    O951    O    0.52229   0.47857   0.96133   1.000
    O952    O    0.68444   0.45860   0.91074   1.000
    O953    O    0.54751   0.50396   0.95654   1.000
    O954    O    0.73889   0.38238   0.95984   1.000
    O955    O    0.71343   0.41736   0.89668   1.000
    O956    O    0.57773   0.31492   0.94145   1.000
    O957    O    0.65057   0.34586   0.91093   1.000
    H958    H    0.71098   0.67253   0.77378   1.000
    H959    H    0.73468   0.51485   0.84083   1.000
    H960    H    0.74927   0.55251   0.81471   1.000
    H961    H    0.82446   0.38423   0.86305   1.000
    H962    H    0.77869   0.45366   0.81764   1.000
    H963    H    0.58302   0.29936   0.03939   1.000
    H964    H    0.66710   0.27082   0.01158   1.000
    H965    H    0.54151   0.36801   0.99626   1.000
    H966    H    0.51443   0.40797   0.00759   1.000
    H967    H    0.58302   0.41181   0.92083   1.000
    H968    H    0.55606   0.45151   0.93203   1.000
    H969    H    0.63910   0.47439   0.90893   1.000
    H970    H    0.59165   0.49049   0.92451   1.000
    H971    H    0.72592   0.34198   0.99270   1.000
    H972    H    0.70310   0.31624   0.03548   1.000
    H973    H    0.69105   0.40637   0.02072   1.000
    H974    H    0.66869   0.38102   0.06289   1.000
    Cr975   Cr   0.30577   0.59230   0.13577   1.000
    Cr976   Cr   0.44652   0.71966   0.94344   1.000
    C977    C    0.68056   0.70277   0.82760   1.000
    C978    C    0.52304   0.73753   0.88898   1.000
    C979    C    0.54461   0.74597   0.87397   1.000
    C980    C    0.39946   0.82254   0.93321   1.000
    C981    C    0.41937   0.77511   0.93773   1.000
    C982    C    0.41896   0.79833   0.93911   1.000
    C983    C    0.43830   0.79696   0.94542   1.000
    C984    C    0.29274   0.60157   0.06406   1.000
    C985    C    0.28742   0.62499   0.09064   1.000
    C986    C    0.28506   0.62506   0.06782   1.000
    C987    C    0.27678   0.64857   0.04855   1.000
    C988    C    0.38611   0.54484   0.08703   1.000
    C989    C    0.36196   0.58169   0.10596   1.000
    C990    C    0.38640   0.56470   0.09130   1.000
    C991    C    0.40915   0.52917   0.07319   1.000
    C992    C    0.45770   0.51739   0.04690   1.000
    C993    C    0.43328   0.53274   0.06325   1.000
    C994    C    0.41057   0.56810   0.08149   1.000
    C995    C    0.43353   0.55243   0.06778   1.000
    C996    C    0.47788   0.62901   0.96575   1.000
    C997    C    0.48724   0.60159   0.97480   1.000
    C998    C    0.35050   0.71368   0.92776   1.000
    C999    C    0.39300   0.72170   0.90834   1.000
    C1000   C    0.37631   0.71013   0.91028   1.000
    C1001   C    0.33577   0.70062   0.93111   1.000
    C1002   C    0.32862   0.58192   0.17204   1.000
    C1003   C    0.34661   0.68385   0.91701   1.000
    C1004   C    0.38669   0.69408   0.89562   1.000
    C1005   C    0.37206   0.68119   0.89889   1.000
    O1006   O    0.63876   0.74786   0.82441   1.000
    O1007   O    0.47735   0.72475   0.91673   1.000
    O1008   O    0.58630   0.76523   0.84199   1.000
    O1009   O    0.43680   0.75327   0.94363   1.000
    O1010   O    0.40227   0.77824   0.88918   1.000
    O1011   O    0.29648   0.60319   0.10659   1.000
    O1012   O    0.27054   0.60330   0.15715   1.000
    O1013   O    0.34063   0.57723   0.11604   1.000
    O1014   O    0.36353   0.60000   0.10795   1.000
    O1015   O    0.45664   0.50060   0.04203   1.000
    O1016   O    0.47857   0.52229   0.03782   1.000
    O1017   O    0.45860   0.68444   0.94621   1.000
    O1018   O    0.50396   0.54751   0.99199   1.000
    O1019   O    0.38238   0.73889   0.91888   1.000
    O1020   O    0.41736   0.71343   0.97254   1.000
    O1021   O    0.31492   0.57773   0.16590   1.000
    O1022   O    0.34586   0.65057   0.09263   1.000
    H1023   H    0.67253   0.71098   0.84271   1.000
    H1024   H    0.51485   0.73468   0.90963   1.000
    H1025   H    0.55251   0.74927   0.88351   1.000
    H1026   H    0.38423   0.82446   0.92826   1.000
    H1027   H    0.45366   0.77869   0.95001   1.000
    H1028   H    0.29936   0.58302   0.07824   1.000
    H1029   H    0.27082   0.66710   0.05050   1.000
    H1030   H    0.36801   0.54151   0.09421   1.000
    H1031   H    0.40797   0.51443   0.07002   1.000
    H1032   H    0.41181   0.58302   0.08433   1.000
    H1033   H    0.45151   0.55606   0.06039   1.000
    H1034   H    0.47439   0.63910   0.97758   1.000
    H1035   H    0.49049   0.59165   0.99335   1.000
    H1036   H    0.34198   0.72592   0.93941   1.000
    H1037   H    0.31624   0.70310   0.94517   1.000
    H1038   H    0.40637   0.69105   0.88186   1.000
    H1039   H    0.38102   0.66869   0.88740   1.000
    Cr1040  Cr   0.59230   0.13577   0.30577   1.000
    Cr1041  Cr   0.71966   0.94344   0.44652   1.000
    C1042   C    0.70277   0.82760   0.68056   1.000
    C1043   C    0.73753   0.88898   0.52304   1.000
    C1044   C    0.74597   0.87397   0.54461   1.000
    C1045   C    0.82254   0.93321   0.39946   1.000
    C1046   C    0.77511   0.93773   0.41937   1.000
    C1047   C    0.79833   0.93911   0.41896   1.000
    C1048   C    0.79696   0.94542   0.43830   1.000
    C1049   C    0.60157   0.06406   0.29274   1.000
    C1050   C    0.62499   0.09064   0.28742   1.000
    C1051   C    0.62506   0.06782   0.28506   1.000
    C1052   C    0.64857   0.04855   0.27678   1.000
    C1053   C    0.54484   0.08703   0.38611   1.000
    C1054   C    0.58169   0.10596   0.36196   1.000
    C1055   C    0.56470   0.09130   0.38640   1.000
    C1056   C    0.52917   0.07319   0.40915   1.000
    C1057   C    0.51739   0.04690   0.45770   1.000
    C1058   C    0.53274   0.06325   0.43328   1.000
    C1059   C    0.56810   0.08149   0.41057   1.000
    C1060   C    0.55243   0.06778   0.43353   1.000
    C1061   C    0.62901   0.96575   0.47788   1.000
    C1062   C    0.60159   0.97480   0.48724   1.000
    C1063   C    0.71368   0.92776   0.35050   1.000
    C1064   C    0.72170   0.90834   0.39300   1.000
    C1065   C    0.71013   0.91028   0.37631   1.000
    C1066   C    0.70062   0.93111   0.33577   1.000
    C1067   C    0.58192   0.17204   0.32862   1.000
    C1068   C    0.68385   0.91701   0.34661   1.000
    C1069   C    0.69408   0.89562   0.38669   1.000
    C1070   C    0.68119   0.89889   0.37206   1.000
    O1071   O    0.74786   0.82441   0.63876   1.000
    O1072   O    0.72475   0.91673   0.47735   1.000
    O1073   O    0.76523   0.84199   0.58630   1.000
    O1074   O    0.75327   0.94363   0.43680   1.000
    O1075   O    0.77824   0.88918   0.40227   1.000
    O1076   O    0.60319   0.10659   0.29648   1.000
    O1077   O    0.60330   0.15715   0.27054   1.000
    O1078   O    0.57723   0.11604   0.34063   1.000
    O1079   O    0.60000   0.10795   0.36353   1.000
    O1080   O    0.50060   0.04203   0.45664   1.000
    O1081   O    0.52229   0.03782   0.47857   1.000
    O1082   O    0.68444   0.94621   0.45860   1.000
    O1083   O    0.54751   0.99199   0.50396   1.000
    O1084   O    0.73889   0.91888   0.38238   1.000
    O1085   O    0.71343   0.97254   0.41736   1.000
    O1086   O    0.57773   0.16590   0.31492   1.000
    O1087   O    0.65057   0.09263   0.34586   1.000
    H1088   H    0.71098   0.84271   0.67253   1.000
    H1089   H    0.73468   0.90963   0.51485   1.000
    H1090   H    0.74927   0.88351   0.55251   1.000
    H1091   H    0.82446   0.92826   0.38423   1.000
    H1092   H    0.77869   0.95001   0.45366   1.000
    H1093   H    0.58302   0.07824   0.29936   1.000
    H1094   H    0.66710   0.05050   0.27082   1.000
    H1095   H    0.54151   0.09421   0.36801   1.000
    H1096   H    0.51443   0.07002   0.40797   1.000
    H1097   H    0.58302   0.08433   0.41181   1.000
    H1098   H    0.55606   0.06039   0.45151   1.000
    H1099   H    0.63910   0.97758   0.47439   1.000
    H1100   H    0.59165   0.99335   0.49049   1.000
    H1101   H    0.72592   0.93941   0.34198   1.000
    H1102   H    0.70310   0.94517   0.31624   1.000
    H1103   H    0.69105   0.88186   0.40637   1.000
    H1104   H    0.66869   0.88740   0.38102   1.000
    Cr1105  Cr   0.30577   0.96616   0.59230   1.000
    Cr1106  Cr   0.44652   0.89037   0.71966   1.000
    C1107   C    0.68056   0.78908   0.70277   1.000
    C1108   C    0.52304   0.85045   0.73753   1.000
    C1109   C    0.54461   0.83545   0.74597   1.000
    C1110   C    0.39946   0.84479   0.82254   1.000
    C1111   C    0.41937   0.86780   0.77511   1.000
    C1112   C    0.41896   0.84359   0.79833   1.000
    C1113   C    0.43830   0.81932   0.79696   1.000
    C1114   C    0.29274   0.04163   0.60157   1.000
    C1115   C    0.28742   0.99695   0.62499   1.000
    C1116   C    0.28506   0.02205   0.62506   1.000
    C1117   C    0.27678   0.02610   0.64857   1.000
    C1118   C    0.38611   0.98201   0.54484   1.000
    C1119   C    0.36196   0.95039   0.58169   1.000
    C1120   C    0.38640   0.95760   0.56470   1.000
    C1121   C    0.40915   0.98848   0.52917   1.000
    C1122   C    0.45770   0.97801   0.51739   1.000
    C1123   C    0.43328   0.97073   0.53274   1.000
    C1124   C    0.41057   0.93984   0.56810   1.000
    C1125   C    0.43353   0.94626   0.55243   1.000
    C1126   C    0.47788   0.92736   0.62901   1.000
    C1127   C    0.48724   0.93637   0.60159   1.000
    C1128   C    0.35050   0.00806   0.71368   1.000
    C1129   C    0.39300   0.97696   0.72170   1.000
    C1130   C    0.37631   0.00328   0.71013   1.000
    C1131   C    0.33577   0.03250   0.70062   1.000
    C1132   C    0.32862   0.91743   0.58192   1.000
    C1133   C    0.34661   0.05253   0.68385   1.000
    C1134   C    0.38669   0.02362   0.69408   1.000
    C1135   C    0.37206   0.04787   0.68119   1.000
    O1136   O    0.63876   0.78897   0.74786   1.000
    O1137   O    0.47735   0.88117   0.72475   1.000
    O1138   O    0.58630   0.80648   0.76523   1.000
    O1139   O    0.43680   0.86630   0.75327   1.000
    O1140   O    0.40227   0.93031   0.77824   1.000
    O1141   O    0.29648   0.99374   0.60319   1.000
    O1142   O    0.27054   0.96902   0.60330   1.000
    O1143   O    0.34063   0.96610   0.57723   1.000
    O1144   O    0.36353   0.92851   0.60000   1.000
    O1145   O    0.45664   0.00073   0.50060   1.000
    O1146   O    0.47857   0.96133   0.52229   1.000
    O1147   O    0.45860   0.91074   0.68444   1.000
    O1148   O    0.50396   0.95654   0.54751   1.000
    O1149   O    0.38238   0.95984   0.73889   1.000
    O1150   O    0.41736   0.89668   0.71343   1.000
    O1151   O    0.31492   0.94145   0.57773   1.000
    O1152   O    0.34586   0.91093   0.65057   1.000
    H1153   H    0.67253   0.77378   0.71098   1.000
    H1154   H    0.51485   0.84083   0.73468   1.000
    H1155   H    0.55251   0.81471   0.74927   1.000
    H1156   H    0.38423   0.86305   0.82446   1.000
    H1157   H    0.45366   0.81764   0.77869   1.000
    H1158   H    0.29936   0.03939   0.58302   1.000
    H1159   H    0.27082   0.01158   0.66710   1.000
    H1160   H    0.36801   0.99626   0.54151   1.000
    H1161   H    0.40797   0.00759   0.51443   1.000
    H1162   H    0.41181   0.92083   0.58302   1.000
    H1163   H    0.45151   0.93203   0.55606   1.000
    H1164   H    0.47439   0.90893   0.63910   1.000
    H1165   H    0.49049   0.92451   0.59165   1.000
    H1166   H    0.34198   0.99270   0.72592   1.000
    H1167   H    0.31624   0.03548   0.70310   1.000
    H1168   H    0.40637   0.02072   0.69105   1.000
    H1169   H    0.38102   0.06289   0.66869   1.000
    Cr1170  Cr   0.13577   0.59230   0.96616   1.000
    Cr1171  Cr   0.94344   0.71966   0.89037   1.000
    C1172   C    0.82760   0.70277   0.78908   1.000
    C1173   C    0.88898   0.73753   0.85045   1.000
    C1174   C    0.87397   0.74597   0.83545   1.000
    C1175   C    0.93321   0.82254   0.84479   1.000
    C1176   C    0.93773   0.77511   0.86780   1.000
    C1177   C    0.93911   0.79833   0.84359   1.000
    C1178   C    0.94542   0.79696   0.81932   1.000
    C1179   C    0.06406   0.60157   0.04163   1.000
    C1180   C    0.09064   0.62499   0.99695   1.000
    C1181   C    0.06782   0.62506   0.02205   1.000
    C1182   C    0.04855   0.64857   0.02610   1.000
    C1183   C    0.08703   0.54484   0.98201   1.000
    C1184   C    0.10596   0.58169   0.95039   1.000
    C1185   C    0.09130   0.56470   0.95760   1.000
    C1186   C    0.07319   0.52917   0.98848   1.000
    C1187   C    0.04690   0.51739   0.97801   1.000
    C1188   C    0.06325   0.53274   0.97073   1.000
    C1189   C    0.08149   0.56810   0.93984   1.000
    C1190   C    0.06778   0.55243   0.94626   1.000
    C1191   C    0.96575   0.62901   0.92736   1.000
    C1192   C    0.97480   0.60159   0.93637   1.000
    C1193   C    0.92776   0.71368   0.00806   1.000
    C1194   C    0.90834   0.72170   0.97696   1.000
    C1195   C    0.91028   0.71013   0.00328   1.000
    C1196   C    0.93111   0.70062   0.03250   1.000
    C1197   C    0.17204   0.58192   0.91743   1.000
    C1198   C    0.91701   0.68385   0.05253   1.000
    C1199   C    0.89562   0.69408   0.02362   1.000
    C1200   C    0.89889   0.68119   0.04787   1.000
    O1201   O    0.82441   0.74786   0.78897   1.000
    O1202   O    0.91673   0.72475   0.88117   1.000
    O1203   O    0.84199   0.76523   0.80648   1.000
    O1204   O    0.94363   0.75327   0.86630   1.000
    O1205   O    0.88918   0.77824   0.93031   1.000
    O1206   O    0.10659   0.60319   0.99374   1.000
    O1207   O    0.15715   0.60330   0.96902   1.000
    O1208   O    0.11604   0.57723   0.96610   1.000
    O1209   O    0.10795   0.60000   0.92851   1.000
    O1210   O    0.04203   0.50060   0.00073   1.000
    O1211   O    0.03782   0.52229   0.96133   1.000
    O1212   O    0.94621   0.68444   0.91074   1.000
    O1213   O    0.99199   0.54751   0.95654   1.000
    O1214   O    0.91888   0.73889   0.95984   1.000
    O1215   O    0.97254   0.71343   0.89668   1.000
    O1216   O    0.16590   0.57773   0.94145   1.000
    O1217   O    0.09263   0.65057   0.91093   1.000
    H1218   H    0.84271   0.71098   0.77378   1.000
    H1219   H    0.90963   0.73468   0.84083   1.000
    H1220   H    0.88351   0.74927   0.81471   1.000
    H1221   H    0.92826   0.82446   0.86305   1.000
    H1222   H    0.95001   0.77869   0.81764   1.000
    H1223   H    0.07824   0.58302   0.03939   1.000
    H1224   H    0.05050   0.66710   0.01158   1.000
    H1225   H    0.09421   0.54151   0.99626   1.000
    H1226   H    0.07002   0.51443   0.00759   1.000
    H1227   H    0.08433   0.58302   0.92083   1.000
    H1228   H    0.06039   0.55606   0.93203   1.000
    H1229   H    0.97758   0.63910   0.90893   1.000
    H1230   H    0.99335   0.59165   0.92451   1.000
    H1231   H    0.93941   0.72592   0.99270   1.000
    H1232   H    0.94517   0.70310   0.03548   1.000
    H1233   H    0.88186   0.69105   0.02072   1.000
    H1234   H    0.88740   0.66869   0.06289   1.000
    Cr1235  Cr   0.96616   0.30577   0.13577   1.000
    Cr1236  Cr   0.89037   0.44652   0.94344   1.000
    C1237   C    0.78908   0.68056   0.82760   1.000
    C1238   C    0.85045   0.52304   0.88898   1.000
    C1239   C    0.83545   0.54461   0.87397   1.000
    C1240   C    0.84479   0.39946   0.93321   1.000
    C1241   C    0.86780   0.41937   0.93773   1.000
    C1242   C    0.84359   0.41896   0.93911   1.000
    C1243   C    0.81932   0.43830   0.94542   1.000
    C1244   C    0.04163   0.29274   0.06406   1.000
    C1245   C    0.99695   0.28742   0.09064   1.000
    C1246   C    0.02205   0.28506   0.06782   1.000
    C1247   C    0.02610   0.27678   0.04855   1.000
    C1248   C    0.98201   0.38611   0.08703   1.000
    C1249   C    0.95039   0.36196   0.10596   1.000
    C1250   C    0.95760   0.38640   0.09130   1.000
    C1251   C    0.98848   0.40915   0.07319   1.000
    C1252   C    0.97801   0.45770   0.04690   1.000
    C1253   C    0.97073   0.43328   0.06325   1.000
    C1254   C    0.93984   0.41057   0.08149   1.000
    C1255   C    0.94626   0.43353   0.06778   1.000
    C1256   C    0.92736   0.47788   0.96575   1.000
    C1257   C    0.93637   0.48724   0.97480   1.000
    C1258   C    0.00806   0.35050   0.92776   1.000
    C1259   C    0.97696   0.39300   0.90834   1.000
    C1260   C    0.00328   0.37631   0.91028   1.000
    C1261   C    0.03250   0.33577   0.93111   1.000
    C1262   C    0.91743   0.32862   0.17204   1.000
    C1263   C    0.05253   0.34661   0.91701   1.000
    C1264   C    0.02362   0.38669   0.89562   1.000
    C1265   C    0.04787   0.37206   0.89889   1.000
    O1266   O    0.78897   0.63876   0.82441   1.000
    O1267   O    0.88117   0.47735   0.91673   1.000
    O1268   O    0.80648   0.58630   0.84199   1.000
    O1269   O    0.86630   0.43680   0.94363   1.000
    O1270   O    0.93031   0.40227   0.88918   1.000
    O1271   O    0.99374   0.29648   0.10659   1.000
    O1272   O    0.96902   0.27054   0.15715   1.000
    O1273   O    0.96610   0.34063   0.11604   1.000
    O1274   O    0.92851   0.36353   0.10795   1.000
    O1275   O    0.00073   0.45664   0.04203   1.000
    O1276   O    0.96133   0.47857   0.03782   1.000
    O1277   O    0.91074   0.45860   0.94621   1.000
    O1278   O    0.95654   0.50396   0.99199   1.000
    O1279   O    0.95984   0.38238   0.91888   1.000
    O1280   O    0.89668   0.41736   0.97254   1.000
    O1281   O    0.94145   0.31492   0.16590   1.000
    O1282   O    0.91093   0.34586   0.09263   1.000
    H1283   H    0.77378   0.67253   0.84271   1.000
    H1284   H    0.84083   0.51485   0.90963   1.000
    H1285   H    0.81471   0.55251   0.88351   1.000
    H1286   H    0.86305   0.38423   0.92826   1.000
    H1287   H    0.81764   0.45366   0.95001   1.000
    H1288   H    0.03939   0.29936   0.07824   1.000
    H1289   H    0.01158   0.27082   0.05050   1.000
    H1290   H    0.99626   0.36801   0.09421   1.000
    H1291   H    0.00759   0.40797   0.07002   1.000
    H1292   H    0.92083   0.41181   0.08433   1.000
    H1293   H    0.93203   0.45151   0.06039   1.000
    H1294   H    0.90893   0.47439   0.97758   1.000
    H1295   H    0.92451   0.49049   0.99335   1.000
    H1296   H    0.99270   0.34198   0.93941   1.000
    H1297   H    0.03548   0.31624   0.94517   1.000
    H1298   H    0.02072   0.40637   0.88186   1.000
    H1299   H    0.06289   0.38102   0.88740   1.000
    Cr1300  Cr   0.96616   0.59230   0.30577   1.000
    Cr1301  Cr   0.89037   0.71966   0.44652   1.000
    C1302   C    0.78908   0.70277   0.68056   1.000
    C1303   C    0.85045   0.73753   0.52304   1.000
    C1304   C    0.83545   0.74597   0.54461   1.000
    C1305   C    0.84479   0.82254   0.39946   1.000
    C1306   C    0.86780   0.77511   0.41937   1.000
    C1307   C    0.84359   0.79833   0.41896   1.000
    C1308   C    0.81932   0.79696   0.43830   1.000
    C1309   C    0.04163   0.60157   0.29274   1.000
    C1310   C    0.99695   0.62499   0.28742   1.000
    C1311   C    0.02205   0.62506   0.28506   1.000
    C1312   C    0.02610   0.64857   0.27678   1.000
    C1313   C    0.98201   0.54484   0.38611   1.000
    C1314   C    0.95039   0.58169   0.36196   1.000
    C1315   C    0.95760   0.56470   0.38640   1.000
    C1316   C    0.98848   0.52917   0.40915   1.000
    C1317   C    0.97801   0.51739   0.45770   1.000
    C1318   C    0.97073   0.53274   0.43328   1.000
    C1319   C    0.93984   0.56810   0.41057   1.000
    C1320   C    0.94626   0.55243   0.43353   1.000
    C1321   C    0.92736   0.62901   0.47788   1.000
    C1322   C    0.93637   0.60159   0.48724   1.000
    C1323   C    0.00806   0.71368   0.35050   1.000
    C1324   C    0.97696   0.72170   0.39300   1.000
    C1325   C    0.00328   0.71013   0.37631   1.000
    C1326   C    0.03250   0.70062   0.33577   1.000
    C1327   C    0.91743   0.58192   0.32862   1.000
    C1328   C    0.05253   0.68385   0.34661   1.000
    C1329   C    0.02362   0.69408   0.38669   1.000
    C1330   C    0.04787   0.68119   0.37206   1.000
    O1331   O    0.78897   0.74786   0.63876   1.000
    O1332   O    0.88117   0.72475   0.47735   1.000
    O1333   O    0.80648   0.76523   0.58630   1.000
    O1334   O    0.86630   0.75327   0.43680   1.000
    O1335   O    0.93031   0.77824   0.40227   1.000
    O1336   O    0.99374   0.60319   0.29648   1.000
    O1337   O    0.96902   0.60330   0.27054   1.000
    O1338   O    0.96610   0.57723   0.34063   1.000
    O1339   O    0.92851   0.60000   0.36353   1.000
    O1340   O    0.00073   0.50060   0.45664   1.000
    O1341   O    0.96133   0.52229   0.47857   1.000
    O1342   O    0.91074   0.68444   0.45860   1.000
    O1343   O    0.95654   0.54751   0.50396   1.000
    O1344   O    0.95984   0.73889   0.38238   1.000
    O1345   O    0.89668   0.71343   0.41736   1.000
    O1346   O    0.94145   0.57773   0.31492   1.000
    O1347   O    0.91093   0.65057   0.34586   1.000
    H1348   H    0.77378   0.71098   0.67253   1.000
    H1349   H    0.84083   0.73468   0.51485   1.000
    H1350   H    0.81471   0.74927   0.55251   1.000
    H1351   H    0.86305   0.82446   0.38423   1.000
    H1352   H    0.81764   0.77869   0.45366   1.000
    H1353   H    0.03939   0.58302   0.29936   1.000
    H1354   H    0.01158   0.66710   0.27082   1.000
    H1355   H    0.99626   0.54151   0.36801   1.000
    H1356   H    0.00759   0.51443   0.40797   1.000
    H1357   H    0.92083   0.58302   0.41181   1.000
    H1358   H    0.93203   0.55606   0.45151   1.000
    H1359   H    0.90893   0.63910   0.47439   1.000
    H1360   H    0.92451   0.59165   0.49049   1.000
    H1361   H    0.99270   0.72592   0.34198   1.000
    H1362   H    0.03548   0.70310   0.31624   1.000
    H1363   H    0.02072   0.69105   0.40637   1.000
    H1364   H    0.06289   0.66869   0.38102   1.000
    Cr1365  Cr   0.13577   0.30577   0.59230   1.000
    Cr1366  Cr   0.94344   0.44652   0.71966   1.000
    C1367   C    0.82760   0.68056   0.70277   1.000
    C1368   C    0.88898   0.52304   0.73753   1.000
    C1369   C    0.87397   0.54461   0.74597   1.000
    C1370   C    0.93321   0.39946   0.82254   1.000
    C1371   C    0.93773   0.41937   0.77511   1.000
    C1372   C    0.93911   0.41896   0.79833   1.000
    C1373   C    0.94542   0.43830   0.79696   1.000
    C1374   C    0.06406   0.29274   0.60157   1.000
    C1375   C    0.09064   0.28742   0.62499   1.000
    C1376   C    0.06782   0.28506   0.62506   1.000
    C1377   C    0.04855   0.27678   0.64857   1.000
    C1378   C    0.08703   0.38611   0.54484   1.000
    C1379   C    0.10596   0.36196   0.58169   1.000
    C1380   C    0.09130   0.38640   0.56470   1.000
    C1381   C    0.07319   0.40915   0.52917   1.000
    C1382   C    0.04690   0.45770   0.51739   1.000
    C1383   C    0.06325   0.43328   0.53274   1.000
    C1384   C    0.08149   0.41057   0.56810   1.000
    C1385   C    0.06778   0.43353   0.55243   1.000
    C1386   C    0.96575   0.47788   0.62901   1.000
    C1387   C    0.97480   0.48724   0.60159   1.000
    C1388   C    0.92776   0.35050   0.71368   1.000
    C1389   C    0.90834   0.39300   0.72170   1.000
    C1390   C    0.91028   0.37631   0.71013   1.000
    C1391   C    0.93111   0.33577   0.70062   1.000
    C1392   C    0.17204   0.32862   0.58192   1.000
    C1393   C    0.91701   0.34661   0.68385   1.000
    C1394   C    0.89562   0.38669   0.69408   1.000
    C1395   C    0.89889   0.37206   0.68119   1.000
    O1396   O    0.82441   0.63876   0.74786   1.000
    O1397   O    0.91673   0.47735   0.72475   1.000
    O1398   O    0.84199   0.58630   0.76523   1.000
    O1399   O    0.94363   0.43680   0.75327   1.000
    O1400   O    0.88918   0.40227   0.77824   1.000
    O1401   O    0.10659   0.29648   0.60319   1.000
    O1402   O    0.15715   0.27054   0.60330   1.000
    O1403   O    0.11604   0.34063   0.57723   1.000
    O1404   O    0.10795   0.36353   0.60000   1.000
    O1405   O    0.04203   0.45664   0.50060   1.000
    O1406   O    0.03782   0.47857   0.52229   1.000
    O1407   O    0.94621   0.45860   0.68444   1.000
    O1408   O    0.99199   0.50396   0.54751   1.000
    O1409   O    0.91888   0.38238   0.73889   1.000
    O1410   O    0.97254   0.41736   0.71343   1.000
    O1411   O    0.16590   0.31492   0.57773   1.000
    O1412   O    0.09263   0.34586   0.65057   1.000
    H1413   H    0.84271   0.67253   0.71098   1.000
    H1414   H    0.90963   0.51485   0.73468   1.000
    H1415   H    0.88351   0.55251   0.74927   1.000
    H1416   H    0.92826   0.38423   0.82446   1.000
    H1417   H    0.95001   0.45366   0.77869   1.000
    H1418   H    0.07824   0.29936   0.58302   1.000
    H1419   H    0.05050   0.27082   0.66710   1.000
    H1420   H    0.09421   0.36801   0.54151   1.000
    H1421   H    0.07002   0.40797   0.51443   1.000
    H1422   H    0.08433   0.41181   0.58302   1.000
    H1423   H    0.06039   0.45151   0.55606   1.000
    H1424   H    0.97758   0.47439   0.63910   1.000
    H1425   H    0.99335   0.49049   0.59165   1.000
    H1426   H    0.93941   0.34198   0.72592   1.000
    H1427   H    0.94517   0.31624   0.70310   1.000
    H1428   H    0.88186   0.40637   0.69105   1.000
    H1429   H    0.88740   0.38102   0.66869   1.000
    Cr1430  Cr   0.30577   0.13577   0.96616   1.000
    Cr1431  Cr   0.44652   0.94344   0.89037   1.000
    C1432   C    0.68056   0.82760   0.78908   1.000
    C1433   C    0.52304   0.88898   0.85045   1.000
    C1434   C    0.54461   0.87397   0.83545   1.000
    C1435   C    0.39946   0.93321   0.84479   1.000
    C1436   C    0.41937   0.93773   0.86780   1.000
    C1437   C    0.41896   0.93911   0.84359   1.000
    C1438   C    0.43830   0.94542   0.81932   1.000
    C1439   C    0.29274   0.06406   0.04163   1.000
    C1440   C    0.28742   0.09064   0.99695   1.000
    C1441   C    0.28506   0.06782   0.02205   1.000
    C1442   C    0.27678   0.04855   0.02610   1.000
    C1443   C    0.38611   0.08703   0.98201   1.000
    C1444   C    0.36196   0.10596   0.95039   1.000
    C1445   C    0.38640   0.09130   0.95760   1.000
    C1446   C    0.40915   0.07319   0.98848   1.000
    C1447   C    0.45770   0.04690   0.97801   1.000
    C1448   C    0.43328   0.06325   0.97073   1.000
    C1449   C    0.41057   0.08149   0.93984   1.000
    C1450   C    0.43353   0.06778   0.94626   1.000
    C1451   C    0.47788   0.96575   0.92736   1.000
    C1452   C    0.48724   0.97480   0.93637   1.000
    C1453   C    0.35050   0.92776   0.00806   1.000
    C1454   C    0.39300   0.90834   0.97696   1.000
    C1455   C    0.37631   0.91028   0.00328   1.000
    C1456   C    0.33577   0.93111   0.03250   1.000
    C1457   C    0.32862   0.17204   0.91743   1.000
    C1458   C    0.34661   0.91701   0.05253   1.000
    C1459   C    0.38669   0.89562   0.02362   1.000
    C1460   C    0.37206   0.89889   0.04787   1.000
    O1461   O    0.63876   0.82441   0.78897   1.000
    O1462   O    0.47735   0.91673   0.88117   1.000
    O1463   O    0.58630   0.84199   0.80648   1.000
    O1464   O    0.43680   0.94363   0.86630   1.000
    O1465   O    0.40227   0.88918   0.93031   1.000
    O1466   O    0.29648   0.10659   0.99374   1.000
    O1467   O    0.27054   0.15715   0.96902   1.000
    O1468   O    0.34063   0.11604   0.96610   1.000
    O1469   O    0.36353   0.10795   0.92851   1.000
    O1470   O    0.45664   0.04203   0.00073   1.000
    O1471   O    0.47857   0.03782   0.96133   1.000
    O1472   O    0.45860   0.94621   0.91074   1.000
    O1473   O    0.50396   0.99199   0.95654   1.000
    O1474   O    0.38238   0.91888   0.95984   1.000
    O1475   O    0.41736   0.97254   0.89668   1.000
    O1476   O    0.31492   0.16590   0.94145   1.000
    O1477   O    0.34586   0.09263   0.91093   1.000
    H1478   H    0.67253   0.84271   0.77378   1.000
    H1479   H    0.51485   0.90963   0.84083   1.000
    H1480   H    0.55251   0.88351   0.81471   1.000
    H1481   H    0.38423   0.92826   0.86305   1.000
    H1482   H    0.45366   0.95001   0.81764   1.000
    H1483   H    0.29936   0.07824   0.03939   1.000
    H1484   H    0.27082   0.05050   0.01158   1.000
    H1485   H    0.36801   0.09421   0.99626   1.000
    H1486   H    0.40797   0.07002   0.00759   1.000
    H1487   H    0.41181   0.08433   0.92083   1.000
    H1488   H    0.45151   0.06039   0.93203   1.000
    H1489   H    0.47439   0.97758   0.90893   1.000
    H1490   H    0.49049   0.99335   0.92451   1.000
    H1491   H    0.34198   0.93941   0.99270   1.000
    H1492   H    0.31624   0.94517   0.03548   1.000
    H1493   H    0.40637   0.88186   0.02072   1.000
    H1494   H    0.38102   0.88740   0.06289   1.000
    Cr1495  Cr   0.59230   0.96616   0.13577   1.000
    Cr1496  Cr   0.71966   0.89037   0.94344   1.000
    C1497   C    0.70277   0.78908   0.82760   1.000
    C1498   C    0.73753   0.85045   0.88898   1.000
    C1499   C    0.74597   0.83545   0.87397   1.000
    C1500   C    0.82254   0.84479   0.93321   1.000
    C1501   C    0.77511   0.86780   0.93773   1.000
    C1502   C    0.79833   0.84359   0.93911   1.000
    C1503   C    0.79696   0.81932   0.94542   1.000
    C1504   C    0.60157   0.04163   0.06406   1.000
    C1505   C    0.62499   0.99695   0.09064   1.000
    C1506   C    0.62506   0.02205   0.06782   1.000
    C1507   C    0.64857   0.02610   0.04855   1.000
    C1508   C    0.54484   0.98201   0.08703   1.000
    C1509   C    0.58169   0.95039   0.10596   1.000
    C1510   C    0.56470   0.95760   0.09130   1.000
    C1511   C    0.52917   0.98848   0.07319   1.000
    C1512   C    0.51739   0.97801   0.04690   1.000
    C1513   C    0.53274   0.97073   0.06325   1.000
    C1514   C    0.56810   0.93984   0.08149   1.000
    C1515   C    0.55243   0.94626   0.06778   1.000
    C1516   C    0.62901   0.92736   0.96575   1.000
    C1517   C    0.60159   0.93637   0.97480   1.000
    C1518   C    0.71368   0.00806   0.92776   1.000
    C1519   C    0.72170   0.97696   0.90834   1.000
    C1520   C    0.71013   0.00328   0.91028   1.000
    C1521   C    0.70062   0.03250   0.93111   1.000
    C1522   C    0.58192   0.91743   0.17204   1.000
    C1523   C    0.68385   0.05253   0.91701   1.000
    C1524   C    0.69408   0.02362   0.89562   1.000
    C1525   C    0.68119   0.04787   0.89889   1.000
    O1526   O    0.74786   0.78897   0.82441   1.000
    O1527   O    0.72475   0.88117   0.91673   1.000
    O1528   O    0.76523   0.80648   0.84199   1.000
    O1529   O    0.75327   0.86630   0.94363   1.000
    O1530   O    0.77824   0.93031   0.88918   1.000
    O1531   O    0.60319   0.99374   0.10659   1.000
    O1532   O    0.60330   0.96902   0.15715   1.000
    O1533   O    0.57723   0.96610   0.11604   1.000
    O1534   O    0.60000   0.92851   0.10795   1.000
    O1535   O    0.50060   0.00073   0.04203   1.000
    O1536   O    0.52229   0.96133   0.03782   1.000
    O1537   O    0.68444   0.91074   0.94621   1.000
    O1538   O    0.54751   0.95654   0.99199   1.000
    O1539   O    0.73889   0.95984   0.91888   1.000
    O1540   O    0.71343   0.89668   0.97254   1.000
    O1541   O    0.57773   0.94145   0.16590   1.000
    O1542   O    0.65057   0.91093   0.09263   1.000
    H1543   H    0.71098   0.77378   0.84271   1.000
    H1544   H    0.73468   0.84083   0.90963   1.000
    H1545   H    0.74927   0.81471   0.88351   1.000
    H1546   H    0.82446   0.86305   0.92826   1.000
    H1547   H    0.77869   0.81764   0.95001   1.000
    H1548   H    0.58302   0.03939   0.07824   1.000
    H1549   H    0.66710   0.01158   0.05050   1.000
    H1550   H    0.54151   0.99626   0.09421   1.000
    H1551   H    0.51443   0.00759   0.07002   1.000
    H1552   H    0.58302   0.92083   0.08433   1.000
    H1553   H    0.55606   0.93203   0.06039   1.000
    H1554   H    0.63910   0.90893   0.97758   1.000
    H1555   H    0.59165   0.92451   0.99335   1.000
    H1556   H    0.72592   0.99270   0.93941   1.000
    H1557   H    0.70310   0.03548   0.94517   1.000
    H1558   H    0.69105   0.02072   0.88186   1.000
    H1559   H    0.66869   0.06289   0.88740   1.000
    Cr1560  Cr   0.13577   0.96616   0.59230   1.000
    Cr1561  Cr   0.94344   0.89037   0.71966   1.000
    C1562   C    0.82760   0.78908   0.70277   1.000
    C1563   C    0.88898   0.85045   0.73753   1.000
    C1564   C    0.87397   0.83545   0.74597   1.000
    C1565   C    0.93321   0.84479   0.82254   1.000
    C1566   C    0.93773   0.86780   0.77511   1.000
    C1567   C    0.93911   0.84359   0.79833   1.000
    C1568   C    0.94542   0.81932   0.79696   1.000
    C1569   C    0.06406   0.04163   0.60157   1.000
    C1570   C    0.09064   0.99695   0.62499   1.000
    C1571   C    0.06782   0.02205   0.62506   1.000
    C1572   C    0.04855   0.02610   0.64857   1.000
    C1573   C    0.08703   0.98201   0.54484   1.000
    C1574   C    0.10596   0.95039   0.58169   1.000
    C1575   C    0.09130   0.95760   0.56470   1.000
    C1576   C    0.07319   0.98848   0.52917   1.000
    C1577   C    0.04690   0.97801   0.51739   1.000
    C1578   C    0.06325   0.97073   0.53274   1.000
    C1579   C    0.08149   0.93984   0.56810   1.000
    C1580   C    0.06778   0.94626   0.55243   1.000
    C1581   C    0.96575   0.92736   0.62901   1.000
    C1582   C    0.97480   0.93637   0.60159   1.000
    C1583   C    0.92776   0.00806   0.71368   1.000
    C1584   C    0.90834   0.97696   0.72170   1.000
    C1585   C    0.91028   0.00328   0.71013   1.000
    C1586   C    0.93111   0.03250   0.70062   1.000
    C1587   C    0.17204   0.91743   0.58192   1.000
    C1588   C    0.91701   0.05253   0.68385   1.000
    C1589   C    0.89562   0.02362   0.69408   1.000
    C1590   C    0.89889   0.04787   0.68119   1.000
    O1591   O    0.82441   0.78897   0.74786   1.000
    O1592   O    0.91673   0.88117   0.72475   1.000
    O1593   O    0.84199   0.80648   0.76523   1.000
    O1594   O    0.94363   0.86630   0.75327   1.000
    O1595   O    0.88918   0.93031   0.77824   1.000
    O1596   O    0.10659   0.99374   0.60319   1.000
    O1597   O    0.15715   0.96902   0.60330   1.000
    O1598   O    0.11604   0.96610   0.57723   1.000
    O1599   O    0.10795   0.92851   0.60000   1.000
    O1600   O    0.04203   0.00073   0.50060   1.000
    O1601   O    0.03782   0.96133   0.52229   1.000
    O1602   O    0.94621   0.91074   0.68444   1.000
    O1603   O    0.99199   0.95654   0.54751   1.000
    O1604   O    0.91888   0.95984   0.73889   1.000
    O1605   O    0.97254   0.89668   0.71343   1.000
    O1606   O    0.16590   0.94145   0.57773   1.000
    O1607   O    0.09263   0.91093   0.65057   1.000
    H1608   H    0.84271   0.77378   0.71098   1.000
    H1609   H    0.90963   0.84083   0.73468   1.000
    H1610   H    0.88351   0.81471   0.74927   1.000
    H1611   H    0.92826   0.86305   0.82446   1.000
    H1612   H    0.95001   0.81764   0.77869   1.000
    H1613   H    0.07824   0.03939   0.58302   1.000
    H1614   H    0.05050   0.01158   0.66710   1.000
    H1615   H    0.09421   0.99626   0.54151   1.000
    H1616   H    0.07002   0.00759   0.51443   1.000
    H1617   H    0.08433   0.92083   0.58302   1.000
    H1618   H    0.06039   0.93203   0.55606   1.000
    H1619   H    0.97758   0.90893   0.63910   1.000
    H1620   H    0.99335   0.92451   0.59165   1.000
    H1621   H    0.93941   0.99270   0.72592   1.000
    H1622   H    0.94517   0.03548   0.70310   1.000
    H1623   H    0.88186   0.02072   0.69105   1.000
    H1624   H    0.88740   0.06289   0.66869   1.000
    Cr1625  Cr   0.96616   0.13577   0.30577   1.000
    Cr1626  Cr   0.89037   0.94344   0.44652   1.000
    C1627   C    0.78908   0.82760   0.68056   1.000
    C1628   C    0.85045   0.88898   0.52304   1.000
    C1629   C    0.83545   0.87397   0.54461   1.000
    C1630   C    0.84479   0.93321   0.39946   1.000
    C1631   C    0.86780   0.93773   0.41937   1.000
    C1632   C    0.84359   0.93911   0.41896   1.000
    C1633   C    0.81932   0.94542   0.43830   1.000
    C1634   C    0.04163   0.06406   0.29274   1.000
    C1635   C    0.99695   0.09064   0.28742   1.000
    C1636   C    0.02205   0.06782   0.28506   1.000
    C1637   C    0.02610   0.04855   0.27678   1.000
    C1638   C    0.98201   0.08703   0.38611   1.000
    C1639   C    0.95039   0.10596   0.36196   1.000
    C1640   C    0.95760   0.09130   0.38640   1.000
    C1641   C    0.98848   0.07319   0.40915   1.000
    C1642   C    0.97801   0.04690   0.45770   1.000
    C1643   C    0.97073   0.06325   0.43328   1.000
    C1644   C    0.93984   0.08149   0.41057   1.000
    C1645   C    0.94626   0.06778   0.43353   1.000
    C1646   C    0.92736   0.96575   0.47788   1.000
    C1647   C    0.93637   0.97480   0.48724   1.000
    C1648   C    0.00806   0.92776   0.35050   1.000
    C1649   C    0.97696   0.90834   0.39300   1.000
    C1650   C    0.00328   0.91028   0.37631   1.000
    C1651   C    0.03250   0.93111   0.33577   1.000
    C1652   C    0.91743   0.17204   0.32862   1.000
    C1653   C    0.05253   0.91701   0.34661   1.000
    C1654   C    0.02362   0.89562   0.38669   1.000
    C1655   C    0.04787   0.89889   0.37206   1.000
    O1656   O    0.78897   0.82441   0.63876   1.000
    O1657   O    0.88117   0.91673   0.47735   1.000
    O1658   O    0.80648   0.84199   0.58630   1.000
    O1659   O    0.86630   0.94363   0.43680   1.000
    O1660   O    0.93031   0.88918   0.40227   1.000
    O1661   O    0.99374   0.10659   0.29648   1.000
    O1662   O    0.96902   0.15715   0.27054   1.000
    O1663   O    0.96610   0.11604   0.34063   1.000
    O1664   O    0.92851   0.10795   0.36353   1.000
    O1665   O    0.00073   0.04203   0.45664   1.000
    O1666   O    0.96133   0.03782   0.47857   1.000
    O1667   O    0.91074   0.94621   0.45860   1.000
    O1668   O    0.95654   0.99199   0.50396   1.000
    O1669   O    0.95984   0.91888   0.38238   1.000
    O1670   O    0.89668   0.97254   0.41736   1.000
    O1671   O    0.94145   0.16590   0.31492   1.000
    O1672   O    0.91093   0.09263   0.34586   1.000
    H1673   H    0.77378   0.84271   0.67253   1.000
    H1674   H    0.84083   0.90963   0.51485   1.000
    H1675   H    0.81471   0.88351   0.55251   1.000
    H1676   H    0.86305   0.92826   0.38423   1.000
    H1677   H    0.81764   0.95001   0.45366   1.000
    H1678   H    0.03939   0.07824   0.29936   1.000
    H1679   H    0.01158   0.05050   0.27082   1.000
    H1680   H    0.99626   0.09421   0.36801   1.000
    H1681   H    0.00759   0.07002   0.40797   1.000
    H1682   H    0.92083   0.08433   0.41181   1.000
    H1683   H    0.93203   0.06039   0.45151   1.000
    H1684   H    0.90893   0.97758   0.47439   1.000
    H1685   H    0.92451   0.99335   0.49049   1.000
    H1686   H    0.99270   0.93941   0.34198   1.000
    H1687   H    0.03548   0.94517   0.31624   1.000
    H1688   H    0.02072   0.88186   0.40637   1.000
    H1689   H    0.06289   0.88740   0.38102   1.000
    Cr1690  Cr   0.59230   0.30577   0.13577   1.000
    Cr1691  Cr   0.71966   0.44652   0.94344   1.000
    C1692   C    0.70277   0.68056   0.82760   1.000
    C1693   C    0.73753   0.52304   0.88898   1.000
    C1694   C    0.74597   0.54461   0.87397   1.000
    C1695   C    0.82254   0.39946   0.93321   1.000
    C1696   C    0.77511   0.41937   0.93773   1.000
    C1697   C    0.79833   0.41896   0.93911   1.000
    C1698   C    0.79696   0.43830   0.94542   1.000
    C1699   C    0.60157   0.29274   0.06406   1.000
    C1700   C    0.62499   0.28742   0.09064   1.000
    C1701   C    0.62506   0.28506   0.06782   1.000
    C1702   C    0.64857   0.27678   0.04855   1.000
    C1703   C    0.54484   0.38611   0.08703   1.000
    C1704   C    0.58169   0.36196   0.10596   1.000
    C1705   C    0.56470   0.38640   0.09130   1.000
    C1706   C    0.52917   0.40915   0.07319   1.000
    C1707   C    0.51739   0.45770   0.04690   1.000
    C1708   C    0.53274   0.43328   0.06325   1.000
    C1709   C    0.56810   0.41057   0.08149   1.000
    C1710   C    0.55243   0.43353   0.06778   1.000
    C1711   C    0.62901   0.47788   0.96575   1.000
    C1712   C    0.60159   0.48724   0.97480   1.000
    C1713   C    0.71368   0.35050   0.92776   1.000
    C1714   C    0.72170   0.39300   0.90834   1.000
    C1715   C    0.71013   0.37631   0.91028   1.000
    C1716   C    0.70062   0.33577   0.93111   1.000
    C1717   C    0.58192   0.32862   0.17204   1.000
    C1718   C    0.68385   0.34661   0.91701   1.000
    C1719   C    0.69408   0.38669   0.89562   1.000
    C1720   C    0.68119   0.37206   0.89889   1.000
    O1721   O    0.74786   0.63876   0.82441   1.000
    O1722   O    0.72475   0.47735   0.91673   1.000
    O1723   O    0.76523   0.58630   0.84199   1.000
    O1724   O    0.75327   0.43680   0.94363   1.000
    O1725   O    0.77824   0.40227   0.88918   1.000
    O1726   O    0.60319   0.29648   0.10659   1.000
    O1727   O    0.60330   0.27054   0.15715   1.000
    O1728   O    0.57723   0.34063   0.11604   1.000
    O1729   O    0.60000   0.36353   0.10795   1.000
    O1730   O    0.50060   0.45664   0.04203   1.000
    O1731   O    0.52229   0.47857   0.03782   1.000
    O1732   O    0.68444   0.45860   0.94621   1.000
    O1733   O    0.54751   0.50396   0.99199   1.000
    O1734   O    0.73889   0.38238   0.91888   1.000
    O1735   O    0.71343   0.41736   0.97254   1.000
    O1736   O    0.57773   0.31492   0.16590   1.000
    O1737   O    0.65057   0.34586   0.09263   1.000
    H1738   H    0.71098   0.67253   0.84271   1.000
    H1739   H    0.73468   0.51485   0.90963   1.000
    H1740   H    0.74927   0.55251   0.88351   1.000
    H1741   H    0.82446   0.38423   0.92826   1.000
    H1742   H    0.77869   0.45366   0.95001   1.000
    H1743   H    0.58302   0.29936   0.07824   1.000
    H1744   H    0.66710   0.27082   0.05050   1.000
    H1745   H    0.54151   0.36801   0.09421   1.000
    H1746   H    0.51443   0.40797   0.07002   1.000
    H1747   H    0.58302   0.41181   0.08433   1.000
    H1748   H    0.55606   0.45151   0.06039   1.000
    H1749   H    0.63910   0.47439   0.97758   1.000
    H1750   H    0.59165   0.49049   0.99335   1.000
    H1751   H    0.72592   0.34198   0.93941   1.000
    H1752   H    0.70310   0.31624   0.94517   1.000
    H1753   H    0.69105   0.40637   0.88186   1.000
    H1754   H    0.66869   0.38102   0.88740   1.000
    Cr1755  Cr   0.30577   0.59230   0.96616   1.000
    Cr1756  Cr   0.44652   0.71966   0.89037   1.000
    C1757   C    0.68056   0.70277   0.78908   1.000
    C1758   C    0.52304   0.73753   0.85045   1.000
    C1759   C    0.54461   0.74597   0.83545   1.000
    C1760   C    0.39946   0.82254   0.84479   1.000
    C1761   C    0.41937   0.77511   0.86780   1.000
    C1762   C    0.41896   0.79833   0.84359   1.000
    C1763   C    0.43830   0.79696   0.81932   1.000
    C1764   C    0.29274   0.60157   0.04163   1.000
    C1765   C    0.28742   0.62499   0.99695   1.000
    C1766   C    0.28506   0.62506   0.02205   1.000
    C1767   C    0.27678   0.64857   0.02610   1.000
    C1768   C    0.38611   0.54484   0.98201   1.000
    C1769   C    0.36196   0.58169   0.95039   1.000
    C1770   C    0.38640   0.56470   0.95760   1.000
    C1771   C    0.40915   0.52917   0.98848   1.000
    C1772   C    0.45770   0.51739   0.97801   1.000
    C1773   C    0.43328   0.53274   0.97073   1.000
    C1774   C    0.41057   0.56810   0.93984   1.000
    C1775   C    0.43353   0.55243   0.94626   1.000
    C1776   C    0.47788   0.62901   0.92736   1.000
    C1777   C    0.48724   0.60159   0.93637   1.000
    C1778   C    0.35050   0.71368   0.00806   1.000
    C1779   C    0.39300   0.72170   0.97696   1.000
    C1780   C    0.37631   0.71013   0.00328   1.000
    C1781   C    0.33577   0.70062   0.03250   1.000
    C1782   C    0.32862   0.58192   0.91743   1.000
    C1783   C    0.34661   0.68385   0.05253   1.000
    C1784   C    0.38669   0.69408   0.02362   1.000
    C1785   C    0.37206   0.68119   0.04787   1.000
    O1786   O    0.63876   0.74786   0.78897   1.000
    O1787   O    0.47735   0.72475   0.88117   1.000
    O1788   O    0.58630   0.76523   0.80648   1.000
    O1789   O    0.43680   0.75327   0.86630   1.000
    O1790   O    0.40227   0.77824   0.93031   1.000
    O1791   O    0.29648   0.60319   0.99374   1.000
    O1792   O    0.27054   0.60330   0.96902   1.000
    O1793   O    0.34063   0.57723   0.96610   1.000
    O1794   O    0.36353   0.60000   0.92851   1.000
    O1795   O    0.45664   0.50060   0.00073   1.000
    O1796   O    0.47857   0.52229   0.96133   1.000
    O1797   O    0.45860   0.68444   0.91074   1.000
    O1798   O    0.50396   0.54751   0.95654   1.000
    O1799   O    0.38238   0.73889   0.95984   1.000
    O1800   O    0.41736   0.71343   0.89668   1.000
    O1801   O    0.31492   0.57773   0.94145   1.000
    O1802   O    0.34586   0.65057   0.91093   1.000
    H1803   H    0.67253   0.71098   0.77378   1.000
    H1804   H    0.51485   0.73468   0.84083   1.000
    H1805   H    0.55251   0.74927   0.81471   1.000
    H1806   H    0.38423   0.82446   0.86305   1.000
    H1807   H    0.45366   0.77869   0.81764   1.000
    H1808   H    0.29936   0.58302   0.03939   1.000
    H1809   H    0.27082   0.66710   0.01158   1.000
    H1810   H    0.36801   0.54151   0.99626   1.000
    H1811   H    0.40797   0.51443   0.00759   1.000
    H1812   H    0.41181   0.58302   0.92083   1.000
    H1813   H    0.45151   0.55606   0.93203   1.000
    H1814   H    0.47439   0.63910   0.90893   1.000
    H1815   H    0.49049   0.59165   0.92451   1.000
    H1816   H    0.34198   0.72592   0.99270   1.000
    H1817   H    0.31624   0.70310   0.03548   1.000
    H1818   H    0.40637   0.69105   0.02072   1.000
    H1819   H    0.38102   0.66869   0.06289   1.000
    Cr1820  Cr   0.59230   0.13577   0.96616   1.000
    Cr1821  Cr   0.71966   0.94344   0.89037   1.000
    C1822   C    0.70277   0.82760   0.78908   1.000
    C1823   C    0.73753   0.88898   0.85045   1.000
    C1824   C    0.74597   0.87397   0.83545   1.000
    C1825   C    0.82254   0.93321   0.84479   1.000
    C1826   C    0.77511   0.93773   0.86780   1.000
    C1827   C    0.79833   0.93911   0.84359   1.000
    C1828   C    0.79696   0.94542   0.81932   1.000
    C1829   C    0.60157   0.06406   0.04163   1.000
    C1830   C    0.62499   0.09064   0.99695   1.000
    C1831   C    0.62506   0.06782   0.02205   1.000
    C1832   C    0.64857   0.04855   0.02610   1.000
    C1833   C    0.54484   0.08703   0.98201   1.000
    C1834   C    0.58169   0.10596   0.95039   1.000
    C1835   C    0.56470   0.09130   0.95760   1.000
    C1836   C    0.52917   0.07319   0.98848   1.000
    C1837   C    0.51739   0.04690   0.97801   1.000
    C1838   C    0.53274   0.06325   0.97073   1.000
    C1839   C    0.56810   0.08149   0.93984   1.000
    C1840   C    0.55243   0.06778   0.94626   1.000
    C1841   C    0.62901   0.96575   0.92736   1.000
    C1842   C    0.60159   0.97480   0.93637   1.000
    C1843   C    0.71368   0.92776   0.00806   1.000
    C1844   C    0.72170   0.90834   0.97696   1.000
    C1845   C    0.71013   0.91028   0.00328   1.000
    C1846   C    0.70062   0.93111   0.03250   1.000
    C1847   C    0.58192   0.17204   0.91743   1.000
    C1848   C    0.68385   0.91701   0.05253   1.000
    C1849   C    0.69408   0.89562   0.02362   1.000
    C1850   C    0.68119   0.89889   0.04787   1.000
    O1851   O    0.74786   0.82441   0.78897   1.000
    O1852   O    0.72475   0.91673   0.88117   1.000
    O1853   O    0.76523   0.84199   0.80648   1.000
    O1854   O    0.75327   0.94363   0.86630   1.000
    O1855   O    0.77824   0.88918   0.93031   1.000
    O1856   O    0.60319   0.10659   0.99374   1.000
    O1857   O    0.60330   0.15715   0.96902   1.000
    O1858   O    0.57723   0.11604   0.96610   1.000
    O1859   O    0.60000   0.10795   0.92851   1.000
    O1860   O    0.50060   0.04203   0.00073   1.000
    O1861   O    0.52229   0.03782   0.96133   1.000
    O1862   O    0.68444   0.94621   0.91074   1.000
    O1863   O    0.54751   0.99199   0.95654   1.000
    O1864   O    0.73889   0.91888   0.95984   1.000
    O1865   O    0.71343   0.97254   0.89668   1.000
    O1866   O    0.57773   0.16590   0.94145   1.000
    O1867   O    0.65057   0.09263   0.91093   1.000
    H1868   H    0.71098   0.84271   0.77378   1.000
    H1869   H    0.73468   0.90963   0.84083   1.000
    H1870   H    0.74927   0.88351   0.81471   1.000
    H1871   H    0.82446   0.92826   0.86305   1.000
    H1872   H    0.77869   0.95001   0.81764   1.000
    H1873   H    0.58302   0.07824   0.03939   1.000
    H1874   H    0.66710   0.05050   0.01158   1.000
    H1875   H    0.54151   0.09421   0.99626   1.000
    H1876   H    0.51443   0.07002   0.00759   1.000
    H1877   H    0.58302   0.08433   0.92083   1.000
    H1878   H    0.55606   0.06039   0.93203   1.000
    H1879   H    0.63910   0.97758   0.90893   1.000
    H1880   H    0.59165   0.99335   0.92451   1.000
    H1881   H    0.72592   0.93941   0.99270   1.000
    H1882   H    0.70310   0.94517   0.03548   1.000
    H1883   H    0.69105   0.88186   0.02072   1.000
    H1884   H    0.66869   0.88740   0.06289   1.000
    Cr1885  Cr   0.30577   0.96616   0.13577   1.000
    Cr1886  Cr   0.44652   0.89037   0.94344   1.000
    C1887   C    0.68056   0.78908   0.82760   1.000
    C1888   C    0.52304   0.85045   0.88898   1.000
    C1889   C    0.54461   0.83545   0.87397   1.000
    C1890   C    0.39946   0.84479   0.93321   1.000
    C1891   C    0.41937   0.86780   0.93773   1.000
    C1892   C    0.41896   0.84359   0.93911   1.000
    C1893   C    0.43830   0.81932   0.94542   1.000
    C1894   C    0.29274   0.04163   0.06406   1.000
    C1895   C    0.28742   0.99695   0.09064   1.000
    C1896   C    0.28506   0.02205   0.06782   1.000
    C1897   C    0.27678   0.02610   0.04855   1.000
    C1898   C    0.38611   0.98201   0.08703   1.000
    C1899   C    0.36196   0.95039   0.10596   1.000
    C1900   C    0.38640   0.95760   0.09130   1.000
    C1901   C    0.40915   0.98848   0.07319   1.000
    C1902   C    0.45770   0.97801   0.04690   1.000
    C1903   C    0.43328   0.97073   0.06325   1.000
    C1904   C    0.41057   0.93984   0.08149   1.000
    C1905   C    0.43353   0.94626   0.06778   1.000
    C1906   C    0.47788   0.92736   0.96575   1.000
    C1907   C    0.48724   0.93637   0.97480   1.000
    C1908   C    0.35050   0.00806   0.92776   1.000
    C1909   C    0.39300   0.97696   0.90834   1.000
    C1910   C    0.37631   0.00328   0.91028   1.000
    C1911   C    0.33577   0.03250   0.93111   1.000
    C1912   C    0.32862   0.91743   0.17204   1.000
    C1913   C    0.34661   0.05253   0.91701   1.000
    C1914   C    0.38669   0.02362   0.89562   1.000
    C1915   C    0.37206   0.04787   0.89889   1.000
    O1916   O    0.63876   0.78897   0.82441   1.000
    O1917   O    0.47735   0.88117   0.91673   1.000
    O1918   O    0.58630   0.80648   0.84199   1.000
    O1919   O    0.43680   0.86630   0.94363   1.000
    O1920   O    0.40227   0.93031   0.88918   1.000
    O1921   O    0.29648   0.99374   0.10659   1.000
    O1922   O    0.27054   0.96902   0.15715   1.000
    O1923   O    0.34063   0.96610   0.11604   1.000
    O1924   O    0.36353   0.92851   0.10795   1.000
    O1925   O    0.45664   0.00073   0.04203   1.000
    O1926   O    0.47857   0.96133   0.03782   1.000
    O1927   O    0.45860   0.91074   0.94621   1.000
    O1928   O    0.50396   0.95654   0.99199   1.000
    O1929   O    0.38238   0.95984   0.91888   1.000
    O1930   O    0.41736   0.89668   0.97254   1.000
    O1931   O    0.31492   0.94145   0.16590   1.000
    O1932   O    0.34586   0.91093   0.09263   1.000
    H1933   H    0.67253   0.77378   0.84271   1.000
    H1934   H    0.51485   0.84083   0.90963   1.000
    H1935   H    0.55251   0.81471   0.88351   1.000
    H1936   H    0.38423   0.86305   0.92826   1.000
    H1937   H    0.45366   0.81764   0.95001   1.000
    H1938   H    0.29936   0.03939   0.07824   1.000
    H1939   H    0.27082   0.01158   0.05050   1.000
    H1940   H    0.36801   0.99626   0.09421   1.000
    H1941   H    0.40797   0.00759   0.07002   1.000
    H1942   H    0.41181   0.92083   0.08433   1.000
    H1943   H    0.45151   0.93203   0.06039   1.000
    H1944   H    0.47439   0.90893   0.97758   1.000
    H1945   H    0.49049   0.92451   0.99335   1.000
    H1946   H    0.34198   0.99270   0.93941   1.000
    H1947   H    0.31624   0.03548   0.94517   1.000
    H1948   H    0.40637   0.02072   0.88186   1.000
    H1949   H    0.38102   0.06289   0.88740   1.000
    Cr1950  Cr   0.13577   0.59230   0.30577   1.000
    Cr1951  Cr   0.94344   0.71966   0.44652   1.000
    C1952   C    0.82760   0.70277   0.68056   1.000
    C1953   C    0.88898   0.73753   0.52304   1.000
    C1954   C    0.87397   0.74597   0.54461   1.000
    C1955   C    0.93321   0.82254   0.39946   1.000
    C1956   C    0.93773   0.77511   0.41937   1.000
    C1957   C    0.93911   0.79833   0.41896   1.000
    C1958   C    0.94542   0.79696   0.43830   1.000
    C1959   C    0.06406   0.60157   0.29274   1.000
    C1960   C    0.09064   0.62499   0.28742   1.000
    C1961   C    0.06782   0.62506   0.28506   1.000
    C1962   C    0.04855   0.64857   0.27678   1.000
    C1963   C    0.08703   0.54484   0.38611   1.000
    C1964   C    0.10596   0.58169   0.36196   1.000
    C1965   C    0.09130   0.56470   0.38640   1.000
    C1966   C    0.07319   0.52917   0.40915   1.000
    C1967   C    0.04690   0.51739   0.45770   1.000
    C1968   C    0.06325   0.53274   0.43328   1.000
    C1969   C    0.08149   0.56810   0.41057   1.000
    C1970   C    0.06778   0.55243   0.43353   1.000
    C1971   C    0.96575   0.62901   0.47788   1.000
    C1972   C    0.97480   0.60159   0.48724   1.000
    C1973   C    0.92776   0.71368   0.35050   1.000
    C1974   C    0.90834   0.72170   0.39300   1.000
    C1975   C    0.91028   0.71013   0.37631   1.000
    C1976   C    0.93111   0.70062   0.33577   1.000
    C1977   C    0.17204   0.58192   0.32862   1.000
    C1978   C    0.91701   0.68385   0.34661   1.000
    C1979   C    0.89562   0.69408   0.38669   1.000
    C1980   C    0.89889   0.68119   0.37206   1.000
    O1981   O    0.82441   0.74786   0.63876   1.000
    O1982   O    0.91673   0.72475   0.47735   1.000
    O1983   O    0.84199   0.76523   0.58630   1.000
    O1984   O    0.94363   0.75327   0.43680   1.000
    O1985   O    0.88918   0.77824   0.40227   1.000
    O1986   O    0.10659   0.60319   0.29648   1.000
    O1987   O    0.15715   0.60330   0.27054   1.000
    O1988   O    0.11604   0.57723   0.34063   1.000
    O1989   O    0.10795   0.60000   0.36353   1.000
    O1990   O    0.04203   0.50060   0.45664   1.000
    O1991   O    0.03782   0.52229   0.47857   1.000
    O1992   O    0.94621   0.68444   0.45860   1.000
    O1993   O    0.99199   0.54751   0.50396   1.000
    O1994   O    0.91888   0.73889   0.38238   1.000
    O1995   O    0.97254   0.71343   0.41736   1.000
    O1996   O    0.16590   0.57773   0.31492   1.000
    O1997   O    0.09263   0.65057   0.34586   1.000
    H1998   H    0.84271   0.71098   0.67253   1.000
    H1999   H    0.90963   0.73468   0.51485   1.000
    H2000   H    0.88351   0.74927   0.55251   1.000
    H2001   H    0.92826   0.82446   0.38423   1.000
    H2002   H    0.95001   0.77869   0.45366   1.000
    H2003   H    0.07824   0.58302   0.29936   1.000
    H2004   H    0.05050   0.66710   0.27082   1.000
    H2005   H    0.09421   0.54151   0.36801   1.000
    H2006   H    0.07002   0.51443   0.40797   1.000
    H2007   H    0.08433   0.58302   0.41181   1.000
    H2008   H    0.06039   0.55606   0.45151   1.000
    H2009   H    0.97758   0.63910   0.47439   1.000
    H2010   H    0.99335   0.59165   0.49049   1.000
    H2011   H    0.93941   0.72592   0.34198   1.000
    H2012   H    0.94517   0.70310   0.31624   1.000
    H2013   H    0.88186   0.69105   0.40637   1.000
    H2014   H    0.88740   0.66869   0.38102   1.000
    Cr2015  Cr   0.96616   0.30577   0.59230   1.000
    Cr2016  Cr   0.89037   0.44652   0.71966   1.000
    C2017   C    0.78908   0.68056   0.70277   1.000
    C2018   C    0.85045   0.52304   0.73753   1.000
    C2019   C    0.83545   0.54461   0.74597   1.000
    C2020   C    0.84479   0.39946   0.82254   1.000
    C2021   C    0.86780   0.41937   0.77511   1.000
    C2022   C    0.84359   0.41896   0.79833   1.000
    C2023   C    0.81932   0.43830   0.79696   1.000
    C2024   C    0.04163   0.29274   0.60157   1.000
    C2025   C    0.99695   0.28742   0.62499   1.000
    C2026   C    0.02205   0.28506   0.62506   1.000
    C2027   C    0.02610   0.27678   0.64857   1.000
    C2028   C    0.98201   0.38611   0.54484   1.000
    C2029   C    0.95039   0.36196   0.58169   1.000
    C2030   C    0.95760   0.38640   0.56470   1.000
    C2031   C    0.98848   0.40915   0.52917   1.000
    C2032   C    0.97801   0.45770   0.51739   1.000
    C2033   C    0.97073   0.43328   0.53274   1.000
    C2034   C    0.93984   0.41057   0.56810   1.000
    C2035   C    0.94626   0.43353   0.55243   1.000
    C2036   C    0.92736   0.47788   0.62901   1.000
    C2037   C    0.93637   0.48724   0.60159   1.000
    C2038   C    0.00806   0.35050   0.71368   1.000
    C2039   C    0.97696   0.39300   0.72170   1.000
    C2040   C    0.00328   0.37631   0.71013   1.000
    C2041   C    0.03250   0.33577   0.70062   1.000
    C2042   C    0.91743   0.32862   0.58192   1.000
    C2043   C    0.05253   0.34661   0.68385   1.000
    C2044   C    0.02362   0.38669   0.69408   1.000
    C2045   C    0.04787   0.37206   0.68119   1.000
    O2046   O    0.78897   0.63876   0.74786   1.000
    O2047   O    0.88117   0.47735   0.72475   1.000
    O2048   O    0.80648   0.58630   0.76523   1.000
    O2049   O    0.86630   0.43680   0.75327   1.000
    O2050   O    0.93031   0.40227   0.77824   1.000
    O2051   O    0.99374   0.29648   0.60319   1.000
    O2052   O    0.96902   0.27054   0.60330   1.000
    O2053   O    0.96610   0.34063   0.57723   1.000
    O2054   O    0.92851   0.36353   0.60000   1.000
    O2055   O    0.00073   0.45664   0.50060   1.000
    O2056   O    0.96133   0.47857   0.52229   1.000
    O2057   O    0.91074   0.45860   0.68444   1.000
    O2058   O    0.95654   0.50396   0.54751   1.000
    O2059   O    0.95984   0.38238   0.73889   1.000
    O2060   O    0.89668   0.41736   0.71343   1.000
    O2061   O    0.94145   0.31492   0.57773   1.000
    O2062   O    0.91093   0.34586   0.65057   1.000
    H2063   H    0.77378   0.67253   0.71098   1.000
    H2064   H    0.84083   0.51485   0.73468   1.000
    H2065   H    0.81471   0.55251   0.74927   1.000
    H2066   H    0.86305   0.38423   0.82446   1.000
    H2067   H    0.81764   0.45366   0.77869   1.000
    H2068   H    0.03939   0.29936   0.58302   1.000
    H2069   H    0.01158   0.27082   0.66710   1.000
    H2070   H    0.99626   0.36801   0.54151   1.000
    H2071   H    0.00759   0.40797   0.51443   1.000
    H2072   H    0.92083   0.41181   0.58302   1.000
    H2073   H    0.93203   0.45151   0.55606   1.000
    H2074   H    0.90893   0.47439   0.63910   1.000
    H2075   H    0.92451   0.49049   0.59165   1.000
    H2076   H    0.99270   0.34198   0.72592   1.000
    H2077   H    0.03548   0.31624   0.70310   1.000
    H2078   H    0.02072   0.40637   0.69105   1.000
    H2079   H    0.06289   0.38102   0.66869   1.000
    Cr2080  Cr   0.96616   0.59230   0.13577   1.000
    Cr2081  Cr   0.89037   0.71966   0.94344   1.000
    C2082   C    0.78908   0.70277   0.82760   1.000
    C2083   C    0.85045   0.73753   0.88898   1.000
    C2084   C    0.83545   0.74597   0.87397   1.000
    C2085   C    0.84479   0.82254   0.93321   1.000
    C2086   C    0.86780   0.77511   0.93773   1.000
    C2087   C    0.84359   0.79833   0.93911   1.000
    C2088   C    0.81932   0.79696   0.94542   1.000
    C2089   C    0.04163   0.60157   0.06406   1.000
    C2090   C    0.99695   0.62499   0.09064   1.000
    C2091   C    0.02205   0.62506   0.06782   1.000
    C2092   C    0.02610   0.64857   0.04855   1.000
    C2093   C    0.98201   0.54484   0.08703   1.000
    C2094   C    0.95039   0.58169   0.10596   1.000
    C2095   C    0.95760   0.56470   0.09130   1.000
    C2096   C    0.98848   0.52917   0.07319   1.000
    C2097   C    0.97801   0.51739   0.04690   1.000
    C2098   C    0.97073   0.53274   0.06325   1.000
    C2099   C    0.93984   0.56810   0.08149   1.000
    C2100   C    0.94626   0.55243   0.06778   1.000
    C2101   C    0.92736   0.62901   0.96575   1.000
    C2102   C    0.93637   0.60159   0.97480   1.000
    C2103   C    0.00806   0.71368   0.92776   1.000
    C2104   C    0.97696   0.72170   0.90834   1.000
    C2105   C    0.00328   0.71013   0.91028   1.000
    C2106   C    0.03250   0.70062   0.93111   1.000
    C2107   C    0.91743   0.58192   0.17204   1.000
    C2108   C    0.05253   0.68385   0.91701   1.000
    C2109   C    0.02362   0.69408   0.89562   1.000
    C2110   C    0.04787   0.68119   0.89889   1.000
    O2111   O    0.78897   0.74786   0.82441   1.000
    O2112   O    0.88117   0.72475   0.91673   1.000
    O2113   O    0.80648   0.76523   0.84199   1.000
    O2114   O    0.86630   0.75327   0.94363   1.000
    O2115   O    0.93031   0.77824   0.88918   1.000
    O2116   O    0.99374   0.60319   0.10659   1.000
    O2117   O    0.96902   0.60330   0.15715   1.000
    O2118   O    0.96610   0.57723   0.11604   1.000
    O2119   O    0.92851   0.60000   0.10795   1.000
    O2120   O    0.00073   0.50060   0.04203   1.000
    O2121   O    0.96133   0.52229   0.03782   1.000
    O2122   O    0.91074   0.68444   0.94621   1.000
    O2123   O    0.95654   0.54751   0.99199   1.000
    O2124   O    0.95984   0.73889   0.91888   1.000
    O2125   O    0.89668   0.71343   0.97254   1.000
    O2126   O    0.94145   0.57773   0.16590   1.000
    O2127   O    0.91093   0.65057   0.09263   1.000
    H2128   H    0.77378   0.71098   0.84271   1.000
    H2129   H    0.84083   0.73468   0.90963   1.000
    H2130   H    0.81471   0.74927   0.88351   1.000
    H2131   H    0.86305   0.82446   0.92826   1.000
    H2132   H    0.81764   0.77869   0.95001   1.000
    H2133   H    0.03939   0.58302   0.07824   1.000
    H2134   H    0.01158   0.66710   0.05050   1.000
    H2135   H    0.99626   0.54151   0.09421   1.000
    H2136   H    0.00759   0.51443   0.07002   1.000
    H2137   H    0.92083   0.58302   0.08433   1.000
    H2138   H    0.93203   0.55606   0.06039   1.000
    H2139   H    0.90893   0.63910   0.97758   1.000
    H2140   H    0.92451   0.59165   0.99335   1.000
    H2141   H    0.99270   0.72592   0.93941   1.000
    H2142   H    0.03548   0.70310   0.94517   1.000
    H2143   H    0.02072   0.69105   0.88186   1.000
    H2144   H    0.06289   0.66869   0.88740   1.000
    Cr2145  Cr   0.13577   0.30577   0.96616   1.000
    Cr2146  Cr   0.94344   0.44652   0.89037   1.000
    C2147   C    0.82760   0.68056   0.78908   1.000
    C2148   C    0.88898   0.52304   0.85045   1.000
    C2149   C    0.87397   0.54461   0.83545   1.000
    C2150   C    0.93321   0.39946   0.84479   1.000
    C2151   C    0.93773   0.41937   0.86780   1.000
    C2152   C    0.93911   0.41896   0.84359   1.000
    C2153   C    0.94542   0.43830   0.81932   1.000
    C2154   C    0.06406   0.29274   0.04163   1.000
    C2155   C    0.09064   0.28742   0.99695   1.000
    C2156   C    0.06782   0.28506   0.02205   1.000
    C2157   C    0.04855   0.27678   0.02610   1.000
    C2158   C    0.08703   0.38611   0.98201   1.000
    C2159   C    0.10596   0.36196   0.95039   1.000
    C2160   C    0.09130   0.38640   0.95760   1.000
    C2161   C    0.07319   0.40915   0.98848   1.000
    C2162   C    0.04690   0.45770   0.97801   1.000
    C2163   C    0.06325   0.43328   0.97073   1.000
    C2164   C    0.08149   0.41057   0.93984   1.000
    C2165   C    0.06778   0.43353   0.94626   1.000
    C2166   C    0.96575   0.47788   0.92736   1.000
    C2167   C    0.97480   0.48724   0.93637   1.000
    C2168   C    0.92776   0.35050   0.00806   1.000
    C2169   C    0.90834   0.39300   0.97696   1.000
    C2170   C    0.91028   0.37631   0.00328   1.000
    C2171   C    0.93111   0.33577   0.03250   1.000
    C2172   C    0.17204   0.32862   0.91743   1.000
    C2173   C    0.91701   0.34661   0.05253   1.000
    C2174   C    0.89562   0.38669   0.02362   1.000
    C2175   C    0.89889   0.37206   0.04787   1.000
    O2176   O    0.82441   0.63876   0.78897   1.000
    O2177   O    0.91673   0.47735   0.88117   1.000
    O2178   O    0.84199   0.58630   0.80648   1.000
    O2179   O    0.94363   0.43680   0.86630   1.000
    O2180   O    0.88918   0.40227   0.93031   1.000
    O2181   O    0.10659   0.29648   0.99374   1.000
    O2182   O    0.15715   0.27054   0.96902   1.000
    O2183   O    0.11604   0.34063   0.96610   1.000
    O2184   O    0.10795   0.36353   0.92851   1.000
    O2185   O    0.04203   0.45664   0.00073   1.000
    O2186   O    0.03782   0.47857   0.96133   1.000
    O2187   O    0.94621   0.45860   0.91074   1.000
    O2188   O    0.99199   0.50396   0.95654   1.000
    O2189   O    0.91888   0.38238   0.95984   1.000
    O2190   O    0.97254   0.41736   0.89668   1.000
    O2191   O    0.16590   0.31492   0.94145   1.000
    O2192   O    0.09263   0.34586   0.91093   1.000
    H2193   H    0.84271   0.67253   0.77378   1.000
    H2194   H    0.90963   0.51485   0.84083   1.000
    H2195   H    0.88351   0.55251   0.81471   1.000
    H2196   H    0.92826   0.38423   0.86305   1.000
    H2197   H    0.95001   0.45366   0.81764   1.000
    H2198   H    0.07824   0.29936   0.03939   1.000
    H2199   H    0.05050   0.27082   0.01158   1.000
    H2200   H    0.09421   0.36801   0.99626   1.000
    H2201   H    0.07002   0.40797   0.00759   1.000
    H2202   H    0.08433   0.41181   0.92083   1.000
    H2203   H    0.06039   0.45151   0.93203   1.000
    H2204   H    0.97758   0.47439   0.90893   1.000
    H2205   H    0.99335   0.49049   0.92451   1.000
    H2206   H    0.93941   0.34198   0.99270   1.000
    H2207   H    0.94517   0.31624   0.03548   1.000
    H2208   H    0.88186   0.40637   0.02072   1.000
    H2209   H    0.88740   0.38102   0.06289   1.000
    Cr2210  Cr   0.30577   0.13577   0.59230   1.000
    Cr2211  Cr   0.44652   0.94344   0.71966   1.000
    C2212   C    0.68056   0.82760   0.70277   1.000
    C2213   C    0.52304   0.88898   0.73753   1.000
    C2214   C    0.54461   0.87397   0.74597   1.000
    C2215   C    0.39946   0.93321   0.82254   1.000
    C2216   C    0.41937   0.93773   0.77511   1.000
    C2217   C    0.41896   0.93911   0.79833   1.000
    C2218   C    0.43830   0.94542   0.79696   1.000
    C2219   C    0.29274   0.06406   0.60157   1.000
    C2220   C    0.28742   0.09064   0.62499   1.000
    C2221   C    0.28506   0.06782   0.62506   1.000
    C2222   C    0.27678   0.04855   0.64857   1.000
    C2223   C    0.38611   0.08703   0.54484   1.000
    C2224   C    0.36196   0.10596   0.58169   1.000
    C2225   C    0.38640   0.09130   0.56470   1.000
    C2226   C    0.40915   0.07319   0.52917   1.000
    C2227   C    0.45770   0.04690   0.51739   1.000
    C2228   C    0.43328   0.06325   0.53274   1.000
    C2229   C    0.41057   0.08149   0.56810   1.000
    C2230   C    0.43353   0.06778   0.55243   1.000
    C2231   C    0.47788   0.96575   0.62901   1.000
    C2232   C    0.48724   0.97480   0.60159   1.000
    C2233   C    0.35050   0.92776   0.71368   1.000
    C2234   C    0.39300   0.90834   0.72170   1.000
    C2235   C    0.37631   0.91028   0.71013   1.000
    C2236   C    0.33577   0.93111   0.70062   1.000
    C2237   C    0.32862   0.17204   0.58192   1.000
    C2238   C    0.34661   0.91701   0.68385   1.000
    C2239   C    0.38669   0.89562   0.69408   1.000
    C2240   C    0.37206   0.89889   0.68119   1.000
    O2241   O    0.63876   0.82441   0.74786   1.000
    O2242   O    0.47735   0.91673   0.72475   1.000
    O2243   O    0.58630   0.84199   0.76523   1.000
    O2244   O    0.43680   0.94363   0.75327   1.000
    O2245   O    0.40227   0.88918   0.77824   1.000
    O2246   O    0.29648   0.10659   0.60319   1.000
    O2247   O    0.27054   0.15715   0.60330   1.000
    O2248   O    0.34063   0.11604   0.57723   1.000
    O2249   O    0.36353   0.10795   0.60000   1.000
    O2250   O    0.45664   0.04203   0.50060   1.000
    O2251   O    0.47857   0.03782   0.52229   1.000
    O2252   O    0.45860   0.94621   0.68444   1.000
    O2253   O    0.50396   0.99199   0.54751   1.000
    O2254   O    0.38238   0.91888   0.73889   1.000
    O2255   O    0.41736   0.97254   0.71343   1.000
    O2256   O    0.31492   0.16590   0.57773   1.000
    O2257   O    0.34586   0.09263   0.65057   1.000
    H2258   H    0.67253   0.84271   0.71098   1.000
    H2259   H    0.51485   0.90963   0.73468   1.000
    H2260   H    0.55251   0.88351   0.74927   1.000
    H2261   H    0.38423   0.92826   0.82446   1.000
    H2262   H    0.45366   0.95001   0.77869   1.000
    H2263   H    0.29936   0.07824   0.58302   1.000
    H2264   H    0.27082   0.05050   0.66710   1.000
    H2265   H    0.36801   0.09421   0.54151   1.000
    H2266   H    0.40797   0.07002   0.51443   1.000
    H2267   H    0.41181   0.08433   0.58302   1.000
    H2268   H    0.45151   0.06039   0.55606   1.000
    H2269   H    0.47439   0.97758   0.63910   1.000
    H2270   H    0.49049   0.99335   0.59165   1.000
    H2271   H    0.34198   0.93941   0.72592   1.000
    H2272   H    0.31624   0.94517   0.70310   1.000
    H2273   H    0.40637   0.88186   0.69105   1.000
    H2274   H    0.38102   0.88740   0.66869   1.000
    Cr2275  Cr   0.59230   0.96616   0.30577   1.000
    Cr2276  Cr   0.71966   0.89037   0.44652   1.000
    C2277   C    0.70277   0.78908   0.68056   1.000
    C2278   C    0.73753   0.85045   0.52304   1.000
    C2279   C    0.74597   0.83545   0.54461   1.000
    C2280   C    0.82254   0.84479   0.39946   1.000
    C2281   C    0.77511   0.86780   0.41937   1.000
    C2282   C    0.79833   0.84359   0.41896   1.000
    C2283   C    0.79696   0.81932   0.43830   1.000
    C2284   C    0.60157   0.04163   0.29274   1.000
    C2285   C    0.62499   0.99695   0.28742   1.000
    C2286   C    0.62506   0.02205   0.28506   1.000
    C2287   C    0.64857   0.02610   0.27678   1.000
    C2288   C    0.54484   0.98201   0.38611   1.000
    C2289   C    0.58169   0.95039   0.36196   1.000
    C2290   C    0.56470   0.95760   0.38640   1.000
    C2291   C    0.52917   0.98848   0.40915   1.000
    C2292   C    0.51739   0.97801   0.45770   1.000
    C2293   C    0.53274   0.97073   0.43328   1.000
    C2294   C    0.56810   0.93984   0.41057   1.000
    C2295   C    0.55243   0.94626   0.43353   1.000
    C2296   C    0.62901   0.92736   0.47788   1.000
    C2297   C    0.60159   0.93637   0.48724   1.000
    C2298   C    0.71368   0.00806   0.35050   1.000
    C2299   C    0.72170   0.97696   0.39300   1.000
    C2300   C    0.71013   0.00328   0.37631   1.000
    C2301   C    0.70062   0.03250   0.33577   1.000
    C2302   C    0.58192   0.91743   0.32862   1.000
    C2303   C    0.68385   0.05253   0.34661   1.000
    C2304   C    0.69408   0.02362   0.38669   1.000
    C2305   C    0.68119   0.04787   0.37206   1.000
    O2306   O    0.74786   0.78897   0.63876   1.000
    O2307   O    0.72475   0.88117   0.47735   1.000
    O2308   O    0.76523   0.80648   0.58630   1.000
    O2309   O    0.75327   0.86630   0.43680   1.000
    O2310   O    0.77824   0.93031   0.40227   1.000
    O2311   O    0.60319   0.99374   0.29648   1.000
    O2312   O    0.60330   0.96902   0.27054   1.000
    O2313   O    0.57723   0.96610   0.34063   1.000
    O2314   O    0.60000   0.92851   0.36353   1.000
    O2315   O    0.50060   0.00073   0.45664   1.000
    O2316   O    0.52229   0.96133   0.47857   1.000
    O2317   O    0.68444   0.91074   0.45860   1.000
    O2318   O    0.54751   0.95654   0.50396   1.000
    O2319   O    0.73889   0.95984   0.38238   1.000
    O2320   O    0.71343   0.89668   0.41736   1.000
    O2321   O    0.57773   0.94145   0.31492   1.000
    O2322   O    0.65057   0.91093   0.34586   1.000
    H2323   H    0.71098   0.77378   0.67253   1.000
    H2324   H    0.73468   0.84083   0.51485   1.000
    H2325   H    0.74927   0.81471   0.55251   1.000
    H2326   H    0.82446   0.86305   0.38423   1.000
    H2327   H    0.77869   0.81764   0.45366   1.000
    H2328   H    0.58302   0.03939   0.29936   1.000
    H2329   H    0.66710   0.01158   0.27082   1.000
    H2330   H    0.54151   0.99626   0.36801   1.000
    H2331   H    0.51443   0.00759   0.40797   1.000
    H2332   H    0.58302   0.92083   0.41181   1.000
    H2333   H    0.55606   0.93203   0.45151   1.000
    H2334   H    0.63910   0.90893   0.47439   1.000
    H2335   H    0.59165   0.92451   0.49049   1.000
    H2336   H    0.72592   0.99270   0.34198   1.000
    H2337   H    0.70310   0.03548   0.31624   1.000
    H2338   H    0.69105   0.02072   0.40637   1.000
    H2339   H    0.66869   0.06289   0.38102   1.000
    Cr2340  Cr   0.11423   0.28384   0.94423   1.000
    Cr2341  Cr   0.30656   0.35963   0.80348   1.000
    C2342   C    0.42240   0.46092   0.56944   1.000
    C2343   C    0.36102   0.39955   0.72696   1.000
    C2344   C    0.37603   0.41455   0.70539   1.000
    C2345   C    0.31679   0.40521   0.85054   1.000
    C2346   C    0.31227   0.38220   0.83063   1.000
    C2347   C    0.31089   0.40641   0.83104   1.000
    C2348   C    0.30458   0.43068   0.81170   1.000
    C2349   C    0.18594   0.20837   0.95726   1.000
    C2350   C    0.15936   0.25305   0.96258   1.000
    C2351   C    0.18218   0.22795   0.96494   1.000
    C2352   C    0.20145   0.22390   0.97322   1.000
    C2353   C    0.16297   0.26799   0.86389   1.000
    C2354   C    0.14404   0.29961   0.88804   1.000
    C2355   C    0.15870   0.29240   0.86360   1.000
    C2356   C    0.17681   0.26152   0.84085   1.000
    C2357   C    0.20310   0.27199   0.79230   1.000
    C2358   C    0.18675   0.27927   0.81672   1.000
    C2359   C    0.16851   0.31016   0.83943   1.000
    C2360   C    0.18222   0.30374   0.81647   1.000
    C2361   C    0.28425   0.32264   0.77212   1.000
    C2362   C    0.27520   0.31363   0.76276   1.000
    C2363   C    0.32224   0.24194   0.89950   1.000
    C2364   C    0.34166   0.27304   0.85700   1.000
    C2365   C    0.33972   0.24672   0.87369   1.000
    C2366   C    0.31889   0.21750   0.91423   1.000
    C2367   C    0.07796   0.33257   0.92138   1.000
    C2368   C    0.33299   0.19747   0.90339   1.000
    C2369   C    0.35438   0.22638   0.86331   1.000
    C2370   C    0.35111   0.20213   0.87794   1.000
    O2371   O    0.42559   0.46103   0.61124   1.000
    O2372   O    0.33327   0.36883   0.77265   1.000
    O2373   O    0.40801   0.44352   0.66370   1.000
    O2374   O    0.30637   0.38370   0.81320   1.000
    O2375   O    0.36082   0.31969   0.84773   1.000
    O2376   O    0.14341   0.25626   0.95352   1.000
    O2377   O    0.09285   0.28098   0.97946   1.000
    O2378   O    0.13396   0.28390   0.90937   1.000
    O2379   O    0.14205   0.32149   0.88647   1.000
    O2380   O    0.20797   0.24927   0.79336   1.000
    O2381   O    0.21218   0.28867   0.77143   1.000
    O2382   O    0.30379   0.33926   0.79140   1.000
    O2383   O    0.25801   0.29346   0.74604   1.000
    O2384   O    0.33112   0.29016   0.86762   1.000
    O2385   O    0.27746   0.35332   0.83264   1.000
    O2386   O    0.08410   0.30855   0.93508   1.000
    O2387   O    0.15737   0.33907   0.90414   1.000
    H2388   H    0.40729   0.47622   0.57747   1.000
    H2389   H    0.34037   0.40917   0.73515   1.000
    H2390   H    0.36649   0.43529   0.69749   1.000
    H2391   H    0.32174   0.38695   0.86577   1.000
    H2392   H    0.29999   0.43236   0.79634   1.000
    H2393   H    0.17176   0.21061   0.95064   1.000
    H2394   H    0.19950   0.23842   0.97918   1.000
    H2395   H    0.15579   0.25374   0.88199   1.000
    H2396   H    0.17998   0.24241   0.84203   1.000
    H2397   H    0.16567   0.32917   0.83819   1.000
    H2398   H    0.18961   0.31797   0.79849   1.000
    H2399   H    0.27242   0.34107   0.77561   1.000
    H2400   H    0.25665   0.32549   0.75951   1.000
    H2401   H    0.31059   0.25730   0.90802   1.000
    H2402   H    0.30483   0.21452   0.93376   1.000
    H2403   H    0.36814   0.22928   0.84363   1.000
    H2404   H    0.36260   0.18711   0.86898   1.000
    Cr2405  Cr   0.28384   0.11423   0.65770   1.000
    Cr2406  Cr   0.35963   0.30656   0.53034   1.000
    C2407   C    0.46092   0.42240   0.54723   1.000
    C2408   C    0.39955   0.36102   0.51247   1.000
    C2409   C    0.41455   0.37603   0.50403   1.000
    C2410   C    0.40521   0.31679   0.42746   1.000
    C2411   C    0.38220   0.31227   0.47489   1.000
    C2412   C    0.40641   0.31089   0.45167   1.000
    C2413   C    0.43068   0.30458   0.45304   1.000
    C2414   C    0.20837   0.18594   0.64843   1.000
    C2415   C    0.25305   0.15936   0.62501   1.000
    C2416   C    0.22795   0.18218   0.62494   1.000
    C2417   C    0.22390   0.20145   0.60143   1.000
    C2418   C    0.26799   0.16297   0.70516   1.000
    C2419   C    0.29961   0.14404   0.66831   1.000
    C2420   C    0.29240   0.15870   0.68530   1.000
    C2421   C    0.26152   0.17681   0.72083   1.000
    C2422   C    0.27199   0.20310   0.73261   1.000
    C2423   C    0.27927   0.18675   0.71726   1.000
    C2424   C    0.31016   0.16851   0.68190   1.000
    C2425   C    0.30374   0.18222   0.69757   1.000
    C2426   C    0.32264   0.28425   0.62099   1.000
    C2427   C    0.31363   0.27520   0.64841   1.000
    C2428   C    0.24194   0.32224   0.53632   1.000
    C2429   C    0.27304   0.34166   0.52830   1.000
    C2430   C    0.24672   0.33972   0.53987   1.000
    C2431   C    0.21750   0.31889   0.54938   1.000
    C2432   C    0.33257   0.07796   0.66808   1.000
    C2433   C    0.19747   0.33299   0.56615   1.000
    C2434   C    0.22638   0.35438   0.55592   1.000
    C2435   C    0.20213   0.35111   0.56881   1.000
    O2436   O    0.46103   0.42559   0.50214   1.000
    O2437   O    0.36883   0.33327   0.52525   1.000
    O2438   O    0.44352   0.40801   0.48477   1.000
    O2439   O    0.38370   0.30637   0.49673   1.000
    O2440   O    0.31969   0.36082   0.47176   1.000
    O2441   O    0.25626   0.14341   0.64681   1.000
    O2442   O    0.28098   0.09285   0.64670   1.000
    O2443   O    0.28390   0.13396   0.67277   1.000
    O2444   O    0.32149   0.14205   0.65000   1.000
    O2445   O    0.24927   0.20797   0.74940   1.000
    O2446   O    0.28867   0.21218   0.72771   1.000
    O2447   O    0.33926   0.30379   0.56556   1.000
    O2448   O    0.29346   0.25801   0.70249   1.000
    O2449   O    0.29016   0.33112   0.51111   1.000
    O2450   O    0.35332   0.27746   0.53657   1.000
    O2451   O    0.30855   0.08410   0.67227   1.000
    O2452   O    0.33907   0.15737   0.59943   1.000
    H2453   H    0.47622   0.40729   0.53902   1.000
    H2454   H    0.40917   0.34037   0.51532   1.000
    H2455   H    0.43529   0.36649   0.50073   1.000
    H2456   H    0.38695   0.32174   0.42554   1.000
    H2457   H    0.43236   0.29999   0.47131   1.000
    H2458   H    0.21061   0.17176   0.66698   1.000
    H2459   H    0.23842   0.19950   0.58290   1.000
    H2460   H    0.25374   0.15579   0.70849   1.000
    H2461   H    0.24241   0.17998   0.73557   1.000
    H2462   H    0.32917   0.16567   0.66698   1.000
    H2463   H    0.31797   0.18961   0.69394   1.000
    H2464   H    0.34107   0.27242   0.61090   1.000
    H2465   H    0.32549   0.25665   0.65835   1.000
    H2466   H    0.25730   0.31059   0.52408   1.000
    H2467   H    0.21452   0.30483   0.54690   1.000
    H2468   H    0.22928   0.36814   0.55895   1.000
    H2469   H    0.18711   0.36260   0.58131   1.000
    Cr2470  Cr   0.65770   0.94423   0.28384   1.000
    Cr2471  Cr   0.53034   0.80348   0.35963   1.000
    C2472   C    0.54723   0.56944   0.46092   1.000
    C2473   C    0.51247   0.72696   0.39955   1.000
    C2474   C    0.50403   0.70539   0.41455   1.000
    C2475   C    0.42746   0.85054   0.40521   1.000
    C2476   C    0.47489   0.83063   0.38220   1.000
    C2477   C    0.45167   0.83104   0.40641   1.000
    C2478   C    0.45304   0.81170   0.43068   1.000
    C2479   C    0.64843   0.95726   0.20837   1.000
    C2480   C    0.62501   0.96258   0.25305   1.000
    C2481   C    0.62494   0.96494   0.22795   1.000
    C2482   C    0.60143   0.97322   0.22390   1.000
    C2483   C    0.70516   0.86389   0.26799   1.000
    C2484   C    0.66831   0.88804   0.29961   1.000
    C2485   C    0.68530   0.86360   0.29240   1.000
    C2486   C    0.72083   0.84085   0.26152   1.000
    C2487   C    0.73261   0.79230   0.27199   1.000
    C2488   C    0.71726   0.81672   0.27927   1.000
    C2489   C    0.68190   0.83943   0.31016   1.000
    C2490   C    0.69757   0.81647   0.30374   1.000
    C2491   C    0.62099   0.77212   0.32264   1.000
    C2492   C    0.64841   0.76276   0.31363   1.000
    C2493   C    0.53632   0.89950   0.24194   1.000
    C2494   C    0.52830   0.85700   0.27304   1.000
    C2495   C    0.53987   0.87369   0.24672   1.000
    C2496   C    0.54938   0.91423   0.21750   1.000
    C2497   C    0.66808   0.92138   0.33257   1.000
    C2498   C    0.56615   0.90339   0.19747   1.000
    C2499   C    0.55592   0.86331   0.22638   1.000
    C2500   C    0.56881   0.87794   0.20213   1.000
    O2501   O    0.50214   0.61124   0.46103   1.000
    O2502   O    0.52525   0.77265   0.36883   1.000
    O2503   O    0.48477   0.66370   0.44352   1.000
    O2504   O    0.49673   0.81320   0.38370   1.000
    O2505   O    0.47176   0.84773   0.31969   1.000
    O2506   O    0.64681   0.95352   0.25626   1.000
    O2507   O    0.64670   0.97946   0.28098   1.000
    O2508   O    0.67277   0.90937   0.28390   1.000
    O2509   O    0.65000   0.88647   0.32149   1.000
    O2510   O    0.74940   0.79336   0.24927   1.000
    O2511   O    0.72771   0.77143   0.28867   1.000
    O2512   O    0.56556   0.79140   0.33926   1.000
    O2513   O    0.70249   0.74604   0.29346   1.000
    O2514   O    0.51111   0.86762   0.29016   1.000
    O2515   O    0.53657   0.83264   0.35332   1.000
    O2516   O    0.67227   0.93508   0.30855   1.000
    O2517   O    0.59943   0.90414   0.33907   1.000
    H2518   H    0.53902   0.57747   0.47622   1.000
    H2519   H    0.51532   0.73515   0.40917   1.000
    H2520   H    0.50073   0.69749   0.43529   1.000
    H2521   H    0.42554   0.86577   0.38695   1.000
    H2522   H    0.47131   0.79634   0.43236   1.000
    H2523   H    0.66698   0.95064   0.21061   1.000
    H2524   H    0.58290   0.97918   0.23842   1.000
    H2525   H    0.70849   0.88199   0.25374   1.000
    H2526   H    0.73557   0.84203   0.24241   1.000
    H2527   H    0.66698   0.83819   0.32917   1.000
    H2528   H    0.69394   0.79849   0.31797   1.000
    H2529   H    0.61090   0.77561   0.34107   1.000
    H2530   H    0.65835   0.75951   0.32549   1.000
    H2531   H    0.52408   0.90802   0.25730   1.000
    H2532   H    0.54690   0.93376   0.21452   1.000
    H2533   H    0.55895   0.84363   0.22928   1.000
    H2534   H    0.58131   0.86898   0.18711   1.000
    Cr2535  Cr   0.94423   0.65770   0.11423   1.000
    Cr2536  Cr   0.80348   0.53034   0.30656   1.000
    C2537   C    0.56944   0.54723   0.42240   1.000
    C2538   C    0.72696   0.51247   0.36102   1.000
    C2539   C    0.70539   0.50403   0.37603   1.000
    C2540   C    0.85054   0.42746   0.31679   1.000
    C2541   C    0.83063   0.47489   0.31227   1.000
    C2542   C    0.83104   0.45167   0.31089   1.000
    C2543   C    0.81170   0.45304   0.30458   1.000
    C2544   C    0.95726   0.64843   0.18594   1.000
    C2545   C    0.96258   0.62501   0.15936   1.000
    C2546   C    0.96494   0.62494   0.18218   1.000
    C2547   C    0.97322   0.60143   0.20145   1.000
    C2548   C    0.86389   0.70516   0.16297   1.000
    C2549   C    0.88804   0.66831   0.14404   1.000
    C2550   C    0.86360   0.68530   0.15870   1.000
    C2551   C    0.84085   0.72083   0.17681   1.000
    C2552   C    0.79230   0.73261   0.20310   1.000
    C2553   C    0.81672   0.71726   0.18675   1.000
    C2554   C    0.83943   0.68190   0.16851   1.000
    C2555   C    0.81647   0.69757   0.18222   1.000
    C2556   C    0.77212   0.62099   0.28425   1.000
    C2557   C    0.76276   0.64841   0.27520   1.000
    C2558   C    0.89950   0.53632   0.32224   1.000
    C2559   C    0.85700   0.52830   0.34166   1.000
    C2560   C    0.87369   0.53987   0.33972   1.000
    C2561   C    0.91423   0.54938   0.31889   1.000
    C2562   C    0.92138   0.66808   0.07796   1.000
    C2563   C    0.90339   0.56615   0.33299   1.000
    C2564   C    0.86331   0.55592   0.35438   1.000
    C2565   C    0.87794   0.56881   0.35111   1.000
    O2566   O    0.61124   0.50214   0.42559   1.000
    O2567   O    0.77265   0.52525   0.33327   1.000
    O2568   O    0.66370   0.48477   0.40801   1.000
    O2569   O    0.81320   0.49673   0.30637   1.000
    O2570   O    0.84773   0.47176   0.36082   1.000
    O2571   O    0.95352   0.64681   0.14341   1.000
    O2572   O    0.97946   0.64670   0.09285   1.000
    O2573   O    0.90937   0.67277   0.13396   1.000
    O2574   O    0.88647   0.65000   0.14205   1.000
    O2575   O    0.79336   0.74940   0.20797   1.000
    O2576   O    0.77143   0.72771   0.21218   1.000
    O2577   O    0.79140   0.56556   0.30379   1.000
    O2578   O    0.74604   0.70249   0.25801   1.000
    O2579   O    0.86762   0.51111   0.33112   1.000
    O2580   O    0.83264   0.53657   0.27746   1.000
    O2581   O    0.93508   0.67227   0.08410   1.000
    O2582   O    0.90414   0.59943   0.15737   1.000
    H2583   H    0.57747   0.53902   0.40729   1.000
    H2584   H    0.73515   0.51532   0.34037   1.000
    H2585   H    0.69749   0.50073   0.36649   1.000
    H2586   H    0.86577   0.42554   0.32174   1.000
    H2587   H    0.79634   0.47131   0.29999   1.000
    H2588   H    0.95064   0.66698   0.17176   1.000
    H2589   H    0.97918   0.58290   0.19950   1.000
    H2590   H    0.88199   0.70849   0.15579   1.000
    H2591   H    0.84203   0.73557   0.17998   1.000
    H2592   H    0.83819   0.66698   0.16567   1.000
    H2593   H    0.79849   0.69394   0.18961   1.000
    H2594   H    0.77561   0.61090   0.27242   1.000
    H2595   H    0.75951   0.65835   0.25665   1.000
    H2596   H    0.90802   0.52408   0.31059   1.000
    H2597   H    0.93376   0.54690   0.30483   1.000
    H2598   H    0.84363   0.55895   0.36814   1.000
    H2599   H    0.86898   0.58131   0.36260   1.000
    Cr2600  Cr   0.65770   0.11423   0.94423   1.000
    Cr2601  Cr   0.53034   0.30656   0.80348   1.000
    C2602   C    0.54723   0.42240   0.56944   1.000
    C2603   C    0.51247   0.36102   0.72696   1.000
    C2604   C    0.50403   0.37603   0.70539   1.000
    C2605   C    0.42746   0.31679   0.85054   1.000
    C2606   C    0.47489   0.31227   0.83063   1.000
    C2607   C    0.45167   0.31089   0.83104   1.000
    C2608   C    0.45304   0.30458   0.81170   1.000
    C2609   C    0.64843   0.18594   0.95726   1.000
    C2610   C    0.62501   0.15936   0.96258   1.000
    C2611   C    0.62494   0.18218   0.96494   1.000
    C2612   C    0.60143   0.20145   0.97322   1.000
    C2613   C    0.70516   0.16297   0.86389   1.000
    C2614   C    0.66831   0.14404   0.88804   1.000
    C2615   C    0.68530   0.15870   0.86360   1.000
    C2616   C    0.72083   0.17681   0.84085   1.000
    C2617   C    0.73261   0.20310   0.79230   1.000
    C2618   C    0.71726   0.18675   0.81672   1.000
    C2619   C    0.68190   0.16851   0.83943   1.000
    C2620   C    0.69757   0.18222   0.81647   1.000
    C2621   C    0.62099   0.28425   0.77212   1.000
    C2622   C    0.64841   0.27520   0.76276   1.000
    C2623   C    0.53632   0.32224   0.89950   1.000
    C2624   C    0.52830   0.34166   0.85700   1.000
    C2625   C    0.53987   0.33972   0.87369   1.000
    C2626   C    0.54938   0.31889   0.91423   1.000
    C2627   C    0.66808   0.07796   0.92138   1.000
    C2628   C    0.56615   0.33299   0.90339   1.000
    C2629   C    0.55592   0.35438   0.86331   1.000
    C2630   C    0.56881   0.35111   0.87794   1.000
    O2631   O    0.50214   0.42559   0.61124   1.000
    O2632   O    0.52525   0.33327   0.77265   1.000
    O2633   O    0.48477   0.40801   0.66370   1.000
    O2634   O    0.49673   0.30637   0.81320   1.000
    O2635   O    0.47176   0.36082   0.84773   1.000
    O2636   O    0.64681   0.14341   0.95352   1.000
    O2637   O    0.64670   0.09285   0.97946   1.000
    O2638   O    0.67277   0.13396   0.90937   1.000
    O2639   O    0.65000   0.14205   0.88647   1.000
    O2640   O    0.74940   0.20797   0.79336   1.000
    O2641   O    0.72771   0.21218   0.77143   1.000
    O2642   O    0.56556   0.30379   0.79140   1.000
    O2643   O    0.70249   0.25801   0.74604   1.000
    O2644   O    0.51111   0.33112   0.86762   1.000
    O2645   O    0.53657   0.27746   0.83264   1.000
    O2646   O    0.67227   0.08410   0.93508   1.000
    O2647   O    0.59943   0.15737   0.90414   1.000
    H2648   H    0.53902   0.40729   0.57747   1.000
    H2649   H    0.51532   0.34037   0.73515   1.000
    H2650   H    0.50073   0.36649   0.69749   1.000
    H2651   H    0.42554   0.32174   0.86577   1.000
    H2652   H    0.47131   0.29999   0.79634   1.000
    H2653   H    0.66698   0.17176   0.95064   1.000
    H2654   H    0.58290   0.19950   0.97918   1.000
    H2655   H    0.70849   0.15579   0.88199   1.000
    H2656   H    0.73557   0.17998   0.84203   1.000
    H2657   H    0.66698   0.16567   0.83819   1.000
    H2658   H    0.69394   0.18961   0.79849   1.000
    H2659   H    0.61090   0.27242   0.77561   1.000
    H2660   H    0.65835   0.25665   0.75951   1.000
    H2661   H    0.52408   0.31059   0.90802   1.000
    H2662   H    0.54690   0.30483   0.93376   1.000
    H2663   H    0.55895   0.36814   0.84363   1.000
    H2664   H    0.58131   0.36260   0.86898   1.000
    Cr2665  Cr   0.94423   0.28384   0.65770   1.000
    Cr2666  Cr   0.80348   0.35963   0.53034   1.000
    C2667   C    0.56944   0.46092   0.54723   1.000
    C2668   C    0.72696   0.39955   0.51247   1.000
    C2669   C    0.70539   0.41455   0.50403   1.000
    C2670   C    0.85054   0.40521   0.42746   1.000
    C2671   C    0.83063   0.38220   0.47489   1.000
    C2672   C    0.83104   0.40641   0.45167   1.000
    C2673   C    0.81170   0.43068   0.45304   1.000
    C2674   C    0.95726   0.20837   0.64843   1.000
    C2675   C    0.96258   0.25305   0.62501   1.000
    C2676   C    0.96494   0.22795   0.62494   1.000
    C2677   C    0.97322   0.22390   0.60143   1.000
    C2678   C    0.86389   0.26799   0.70516   1.000
    C2679   C    0.88804   0.29961   0.66831   1.000
    C2680   C    0.86360   0.29240   0.68530   1.000
    C2681   C    0.84085   0.26152   0.72083   1.000
    C2682   C    0.79230   0.27199   0.73261   1.000
    C2683   C    0.81672   0.27927   0.71726   1.000
    C2684   C    0.83943   0.31016   0.68190   1.000
    C2685   C    0.81647   0.30374   0.69757   1.000
    C2686   C    0.77212   0.32264   0.62099   1.000
    C2687   C    0.76276   0.31363   0.64841   1.000
    C2688   C    0.89950   0.24194   0.53632   1.000
    C2689   C    0.85700   0.27304   0.52830   1.000
    C2690   C    0.87369   0.24672   0.53987   1.000
    C2691   C    0.91423   0.21750   0.54938   1.000
    C2692   C    0.92138   0.33257   0.66808   1.000
    C2693   C    0.90339   0.19747   0.56615   1.000
    C2694   C    0.86331   0.22638   0.55592   1.000
    C2695   C    0.87794   0.20213   0.56881   1.000
    O2696   O    0.61124   0.46103   0.50214   1.000
    O2697   O    0.77265   0.36883   0.52525   1.000
    O2698   O    0.66370   0.44352   0.48477   1.000
    O2699   O    0.81320   0.38370   0.49673   1.000
    O2700   O    0.84773   0.31969   0.47176   1.000
    O2701   O    0.95352   0.25626   0.64681   1.000
    O2702   O    0.97946   0.28098   0.64670   1.000
    O2703   O    0.90937   0.28390   0.67277   1.000
    O2704   O    0.88647   0.32149   0.65000   1.000
    O2705   O    0.79336   0.24927   0.74940   1.000
    O2706   O    0.77143   0.28867   0.72771   1.000
    O2707   O    0.79140   0.33926   0.56556   1.000
    O2708   O    0.74604   0.29346   0.70249   1.000
    O2709   O    0.86762   0.29016   0.51111   1.000
    O2710   O    0.83264   0.35332   0.53657   1.000
    O2711   O    0.93508   0.30855   0.67227   1.000
    O2712   O    0.90414   0.33907   0.59943   1.000
    H2713   H    0.57747   0.47622   0.53902   1.000
    H2714   H    0.73515   0.40917   0.51532   1.000
    H2715   H    0.69749   0.43529   0.50073   1.000
    H2716   H    0.86577   0.38695   0.42554   1.000
    H2717   H    0.79634   0.43236   0.47131   1.000
    H2718   H    0.95064   0.21061   0.66698   1.000
    H2719   H    0.97918   0.23842   0.58290   1.000
    H2720   H    0.88199   0.25374   0.70849   1.000
    H2721   H    0.84203   0.24241   0.73557   1.000
    H2722   H    0.83819   0.32917   0.66698   1.000
    H2723   H    0.79849   0.31797   0.69394   1.000
    H2724   H    0.77561   0.34107   0.61090   1.000
    H2725   H    0.75951   0.32549   0.65835   1.000
    H2726   H    0.90802   0.25730   0.52408   1.000
    H2727   H    0.93376   0.21452   0.54690   1.000
    H2728   H    0.84363   0.22928   0.55895   1.000
    H2729   H    0.86898   0.18711   0.58131   1.000
    Cr2730  Cr   0.11423   0.65770   0.28384   1.000
    Cr2731  Cr   0.30656   0.53034   0.35963   1.000
    C2732   C    0.42240   0.54723   0.46092   1.000
    C2733   C    0.36102   0.51247   0.39955   1.000
    C2734   C    0.37603   0.50403   0.41455   1.000
    C2735   C    0.31679   0.42746   0.40521   1.000
    C2736   C    0.31227   0.47489   0.38220   1.000
    C2737   C    0.31089   0.45167   0.40641   1.000
    C2738   C    0.30458   0.45304   0.43068   1.000
    C2739   C    0.18594   0.64843   0.20837   1.000
    C2740   C    0.15936   0.62501   0.25305   1.000
    C2741   C    0.18218   0.62494   0.22795   1.000
    C2742   C    0.20145   0.60143   0.22390   1.000
    C2743   C    0.16297   0.70516   0.26799   1.000
    C2744   C    0.14404   0.66831   0.29961   1.000
    C2745   C    0.15870   0.68530   0.29240   1.000
    C2746   C    0.17681   0.72083   0.26152   1.000
    C2747   C    0.20310   0.73261   0.27199   1.000
    C2748   C    0.18675   0.71726   0.27927   1.000
    C2749   C    0.16851   0.68190   0.31016   1.000
    C2750   C    0.18222   0.69757   0.30374   1.000
    C2751   C    0.28425   0.62099   0.32264   1.000
    C2752   C    0.27520   0.64841   0.31363   1.000
    C2753   C    0.32224   0.53632   0.24194   1.000
    C2754   C    0.34166   0.52830   0.27304   1.000
    C2755   C    0.33972   0.53987   0.24672   1.000
    C2756   C    0.31889   0.54938   0.21750   1.000
    C2757   C    0.07796   0.66808   0.33257   1.000
    C2758   C    0.33299   0.56615   0.19747   1.000
    C2759   C    0.35438   0.55592   0.22638   1.000
    C2760   C    0.35111   0.56881   0.20213   1.000
    O2761   O    0.42559   0.50214   0.46103   1.000
    O2762   O    0.33327   0.52525   0.36883   1.000
    O2763   O    0.40801   0.48477   0.44352   1.000
    O2764   O    0.30637   0.49673   0.38370   1.000
    O2765   O    0.36082   0.47176   0.31969   1.000
    O2766   O    0.14341   0.64681   0.25626   1.000
    O2767   O    0.09285   0.64670   0.28098   1.000
    O2768   O    0.13396   0.67277   0.28390   1.000
    O2769   O    0.14205   0.65000   0.32149   1.000
    O2770   O    0.20797   0.74940   0.24927   1.000
    O2771   O    0.21218   0.72771   0.28867   1.000
    O2772   O    0.30379   0.56556   0.33926   1.000
    O2773   O    0.25801   0.70249   0.29346   1.000
    O2774   O    0.33112   0.51111   0.29016   1.000
    O2775   O    0.27746   0.53657   0.35332   1.000
    O2776   O    0.08410   0.67227   0.30855   1.000
    O2777   O    0.15737   0.59943   0.33907   1.000
    H2778   H    0.40729   0.53902   0.47622   1.000
    H2779   H    0.34037   0.51532   0.40917   1.000
    H2780   H    0.36649   0.50073   0.43529   1.000
    H2781   H    0.32174   0.42554   0.38695   1.000
    H2782   H    0.29999   0.47131   0.43236   1.000
    H2783   H    0.17176   0.66698   0.21061   1.000
    H2784   H    0.19950   0.58290   0.23842   1.000
    H2785   H    0.15579   0.70849   0.25374   1.000
    H2786   H    0.17998   0.73557   0.24241   1.000
    H2787   H    0.16567   0.66698   0.32917   1.000
    H2788   H    0.18961   0.69394   0.31797   1.000
    H2789   H    0.27242   0.61090   0.34107   1.000
    H2790   H    0.25665   0.65835   0.32549   1.000
    H2791   H    0.31059   0.52408   0.25730   1.000
    H2792   H    0.30483   0.54690   0.21452   1.000
    H2793   H    0.36814   0.55895   0.22928   1.000
    H2794   H    0.36260   0.58131   0.18711   1.000
    Cr2795  Cr   0.28384   0.94423   0.11423   1.000
    Cr2796  Cr   0.35963   0.80348   0.30656   1.000
    C2797   C    0.46092   0.56944   0.42240   1.000
    C2798   C    0.39955   0.72696   0.36102   1.000
    C2799   C    0.41455   0.70539   0.37603   1.000
    C2800   C    0.40521   0.85054   0.31679   1.000
    C2801   C    0.38220   0.83063   0.31227   1.000
    C2802   C    0.40641   0.83104   0.31089   1.000
    C2803   C    0.43068   0.81170   0.30458   1.000
    C2804   C    0.20837   0.95726   0.18594   1.000
    C2805   C    0.25305   0.96258   0.15936   1.000
    C2806   C    0.22795   0.96494   0.18218   1.000
    C2807   C    0.22390   0.97322   0.20145   1.000
    C2808   C    0.26799   0.86389   0.16297   1.000
    C2809   C    0.29961   0.88804   0.14404   1.000
    C2810   C    0.29240   0.86360   0.15870   1.000
    C2811   C    0.26152   0.84085   0.17681   1.000
    C2812   C    0.27199   0.79230   0.20310   1.000
    C2813   C    0.27927   0.81672   0.18675   1.000
    C2814   C    0.31016   0.83943   0.16851   1.000
    C2815   C    0.30374   0.81647   0.18222   1.000
    C2816   C    0.32264   0.77212   0.28425   1.000
    C2817   C    0.31363   0.76276   0.27520   1.000
    C2818   C    0.24194   0.89950   0.32224   1.000
    C2819   C    0.27304   0.85700   0.34166   1.000
    C2820   C    0.24672   0.87369   0.33972   1.000
    C2821   C    0.21750   0.91423   0.31889   1.000
    C2822   C    0.33257   0.92138   0.07796   1.000
    C2823   C    0.19747   0.90339   0.33299   1.000
    C2824   C    0.22638   0.86331   0.35438   1.000
    C2825   C    0.20213   0.87794   0.35111   1.000
    O2826   O    0.46103   0.61124   0.42559   1.000
    O2827   O    0.36883   0.77265   0.33327   1.000
    O2828   O    0.44352   0.66370   0.40801   1.000
    O2829   O    0.38370   0.81320   0.30637   1.000
    O2830   O    0.31969   0.84773   0.36082   1.000
    O2831   O    0.25626   0.95352   0.14341   1.000
    O2832   O    0.28098   0.97946   0.09285   1.000
    O2833   O    0.28390   0.90937   0.13396   1.000
    O2834   O    0.32149   0.88647   0.14205   1.000
    O2835   O    0.24927   0.79336   0.20797   1.000
    O2836   O    0.28867   0.77143   0.21218   1.000
    O2837   O    0.33926   0.79140   0.30379   1.000
    O2838   O    0.29346   0.74604   0.25801   1.000
    O2839   O    0.29016   0.86762   0.33112   1.000
    O2840   O    0.35332   0.83264   0.27746   1.000
    O2841   O    0.30855   0.93508   0.08410   1.000
    O2842   O    0.33907   0.90414   0.15737   1.000
    H2843   H    0.47622   0.57747   0.40729   1.000
    H2844   H    0.40917   0.73515   0.34037   1.000
    H2845   H    0.43529   0.69749   0.36649   1.000
    H2846   H    0.38695   0.86577   0.32174   1.000
    H2847   H    0.43236   0.79634   0.29999   1.000
    H2848   H    0.21061   0.95064   0.17176   1.000
    H2849   H    0.23842   0.97918   0.19950   1.000
    H2850   H    0.25374   0.88199   0.15579   1.000
    H2851   H    0.24241   0.84203   0.17998   1.000
    H2852   H    0.32917   0.83819   0.16567   1.000
    H2853   H    0.31797   0.79849   0.18961   1.000
    H2854   H    0.34107   0.77561   0.27242   1.000
    H2855   H    0.32549   0.75951   0.25665   1.000
    H2856   H    0.25730   0.90802   0.31059   1.000
    H2857   H    0.21452   0.93376   0.30483   1.000
    H2858   H    0.22928   0.84363   0.36814   1.000
    H2859   H    0.18711   0.86898   0.36260   1.000
    Cr2860  Cr   0.28384   0.65770   0.94423   1.000
    Cr2861  Cr   0.35963   0.53034   0.80348   1.000
    C2862   C    0.46092   0.54723   0.56944   1.000
    C2863   C    0.39955   0.51247   0.72696   1.000
    C2864   C    0.41455   0.50403   0.70539   1.000
    C2865   C    0.40521   0.42746   0.85054   1.000
    C2866   C    0.38220   0.47489   0.83063   1.000
    C2867   C    0.40641   0.45167   0.83104   1.000
    C2868   C    0.43068   0.45304   0.81170   1.000
    C2869   C    0.20837   0.64843   0.95726   1.000
    C2870   C    0.25305   0.62501   0.96258   1.000
    C2871   C    0.22795   0.62494   0.96494   1.000
    C2872   C    0.22390   0.60143   0.97322   1.000
    C2873   C    0.26799   0.70516   0.86389   1.000
    C2874   C    0.29961   0.66831   0.88804   1.000
    C2875   C    0.29240   0.68530   0.86360   1.000
    C2876   C    0.26152   0.72083   0.84085   1.000
    C2877   C    0.27199   0.73261   0.79230   1.000
    C2878   C    0.27927   0.71726   0.81672   1.000
    C2879   C    0.31016   0.68190   0.83943   1.000
    C2880   C    0.30374   0.69757   0.81647   1.000
    C2881   C    0.32264   0.62099   0.77212   1.000
    C2882   C    0.31363   0.64841   0.76276   1.000
    C2883   C    0.24194   0.53632   0.89950   1.000
    C2884   C    0.27304   0.52830   0.85700   1.000
    C2885   C    0.24672   0.53987   0.87369   1.000
    C2886   C    0.21750   0.54938   0.91423   1.000
    C2887   C    0.33257   0.66808   0.92138   1.000
    C2888   C    0.19747   0.56615   0.90339   1.000
    C2889   C    0.22638   0.55592   0.86331   1.000
    C2890   C    0.20213   0.56881   0.87794   1.000
    O2891   O    0.46103   0.50214   0.61124   1.000
    O2892   O    0.36883   0.52525   0.77265   1.000
    O2893   O    0.44352   0.48477   0.66370   1.000
    O2894   O    0.38370   0.49673   0.81320   1.000
    O2895   O    0.31969   0.47176   0.84773   1.000
    O2896   O    0.25626   0.64681   0.95352   1.000
    O2897   O    0.28098   0.64670   0.97946   1.000
    O2898   O    0.28390   0.67277   0.90937   1.000
    O2899   O    0.32149   0.65000   0.88647   1.000
    O2900   O    0.24927   0.74940   0.79336   1.000
    O2901   O    0.28867   0.72771   0.77143   1.000
    O2902   O    0.33926   0.56556   0.79140   1.000
    O2903   O    0.29346   0.70249   0.74604   1.000
    O2904   O    0.29016   0.51111   0.86762   1.000
    O2905   O    0.35332   0.53657   0.83264   1.000
    O2906   O    0.30855   0.67227   0.93508   1.000
    O2907   O    0.33907   0.59943   0.90414   1.000
    H2908   H    0.47622   0.53902   0.57747   1.000
    H2909   H    0.40917   0.51532   0.73515   1.000
    H2910   H    0.43529   0.50073   0.69749   1.000
    H2911   H    0.38695   0.42554   0.86577   1.000
    H2912   H    0.43236   0.47131   0.79634   1.000
    H2913   H    0.21061   0.66698   0.95064   1.000
    H2914   H    0.23842   0.58290   0.97918   1.000
    H2915   H    0.25374   0.70849   0.88199   1.000
    H2916   H    0.24241   0.73557   0.84203   1.000
    H2917   H    0.32917   0.66698   0.83819   1.000
    H2918   H    0.31797   0.69394   0.79849   1.000
    H2919   H    0.34107   0.61090   0.77561   1.000
    H2920   H    0.32549   0.65835   0.75951   1.000
    H2921   H    0.25730   0.52408   0.90802   1.000
    H2922   H    0.21452   0.54690   0.93376   1.000
    H2923   H    0.22928   0.55895   0.84363   1.000
    H2924   H    0.18711   0.58131   0.86898   1.000
    Cr2925  Cr   0.11423   0.94423   0.65770   1.000
    Cr2926  Cr   0.30656   0.80348   0.53034   1.000
    C2927   C    0.42240   0.56944   0.54723   1.000
    C2928   C    0.36102   0.72696   0.51247   1.000
    C2929   C    0.37603   0.70539   0.50403   1.000
    C2930   C    0.31679   0.85054   0.42746   1.000
    C2931   C    0.31227   0.83063   0.47489   1.000
    C2932   C    0.31089   0.83104   0.45167   1.000
    C2933   C    0.30458   0.81170   0.45304   1.000
    C2934   C    0.18594   0.95726   0.64843   1.000
    C2935   C    0.15936   0.96258   0.62501   1.000
    C2936   C    0.18218   0.96494   0.62494   1.000
    C2937   C    0.20145   0.97322   0.60143   1.000
    C2938   C    0.16297   0.86389   0.70516   1.000
    C2939   C    0.14404   0.88804   0.66831   1.000
    C2940   C    0.15870   0.86360   0.68530   1.000
    C2941   C    0.17681   0.84085   0.72083   1.000
    C2942   C    0.20310   0.79230   0.73261   1.000
    C2943   C    0.18675   0.81672   0.71726   1.000
    C2944   C    0.16851   0.83943   0.68190   1.000
    C2945   C    0.18222   0.81647   0.69757   1.000
    C2946   C    0.28425   0.77212   0.62099   1.000
    C2947   C    0.27520   0.76276   0.64841   1.000
    C2948   C    0.32224   0.89950   0.53632   1.000
    C2949   C    0.34166   0.85700   0.52830   1.000
    C2950   C    0.33972   0.87369   0.53987   1.000
    C2951   C    0.31889   0.91423   0.54938   1.000
    C2952   C    0.07796   0.92138   0.66808   1.000
    C2953   C    0.33299   0.90339   0.56615   1.000
    C2954   C    0.35438   0.86331   0.55592   1.000
    C2955   C    0.35111   0.87794   0.56881   1.000
    O2956   O    0.42559   0.61124   0.50214   1.000
    O2957   O    0.33327   0.77265   0.52525   1.000
    O2958   O    0.40801   0.66370   0.48477   1.000
    O2959   O    0.30637   0.81320   0.49673   1.000
    O2960   O    0.36082   0.84773   0.47176   1.000
    O2961   O    0.14341   0.95352   0.64681   1.000
    O2962   O    0.09285   0.97946   0.64670   1.000
    O2963   O    0.13396   0.90937   0.67277   1.000
    O2964   O    0.14205   0.88647   0.65000   1.000
    O2965   O    0.20797   0.79336   0.74940   1.000
    O2966   O    0.21218   0.77143   0.72771   1.000
    O2967   O    0.30379   0.79140   0.56556   1.000
    O2968   O    0.25801   0.74604   0.70249   1.000
    O2969   O    0.33112   0.86762   0.51111   1.000
    O2970   O    0.27746   0.83264   0.53657   1.000
    O2971   O    0.08410   0.93508   0.67227   1.000
    O2972   O    0.15737   0.90414   0.59943   1.000
    H2973   H    0.40729   0.57747   0.53902   1.000
    H2974   H    0.34037   0.73515   0.51532   1.000
    H2975   H    0.36649   0.69749   0.50073   1.000
    H2976   H    0.32174   0.86577   0.42554   1.000
    H2977   H    0.29999   0.79634   0.47131   1.000
    H2978   H    0.17176   0.95064   0.66698   1.000
    H2979   H    0.19950   0.97918   0.58290   1.000
    H2980   H    0.15579   0.88199   0.70849   1.000
    H2981   H    0.17998   0.84203   0.73557   1.000
    H2982   H    0.16567   0.83819   0.66698   1.000
    H2983   H    0.18961   0.79849   0.69394   1.000
    H2984   H    0.27242   0.77561   0.61090   1.000
    H2985   H    0.25665   0.75951   0.65835   1.000
    H2986   H    0.31059   0.90802   0.52408   1.000
    H2987   H    0.30483   0.93376   0.54690   1.000
    H2988   H    0.36814   0.84363   0.55895   1.000
    H2989   H    0.36260   0.86898   0.58131   1.000
    Cr2990  Cr   0.94423   0.11423   0.28384   1.000
    Cr2991  Cr   0.80348   0.30656   0.35963   1.000
    C2992   C    0.56944   0.42240   0.46092   1.000
    C2993   C    0.72696   0.36102   0.39955   1.000
    C2994   C    0.70539   0.37603   0.41455   1.000
    C2995   C    0.85054   0.31679   0.40521   1.000
    C2996   C    0.83063   0.31227   0.38220   1.000
    C2997   C    0.83104   0.31089   0.40641   1.000
    C2998   C    0.81170   0.30458   0.43068   1.000
    C2999   C    0.95726   0.18594   0.20837   1.000
    C3000   C    0.96258   0.15936   0.25305   1.000
    C3001   C    0.96494   0.18218   0.22795   1.000
    C3002   C    0.97322   0.20145   0.22390   1.000
    C3003   C    0.86389   0.16297   0.26799   1.000
    C3004   C    0.88804   0.14404   0.29961   1.000
    C3005   C    0.86360   0.15870   0.29240   1.000
    C3006   C    0.84085   0.17681   0.26152   1.000
    C3007   C    0.79230   0.20310   0.27199   1.000
    C3008   C    0.81672   0.18675   0.27927   1.000
    C3009   C    0.83943   0.16851   0.31016   1.000
    C3010   C    0.81647   0.18222   0.30374   1.000
    C3011   C    0.77212   0.28425   0.32264   1.000
    C3012   C    0.76276   0.27520   0.31363   1.000
    C3013   C    0.89950   0.32224   0.24194   1.000
    C3014   C    0.85700   0.34166   0.27304   1.000
    C3015   C    0.87369   0.33972   0.24672   1.000
    C3016   C    0.91423   0.31889   0.21750   1.000
    C3017   C    0.92138   0.07796   0.33257   1.000
    C3018   C    0.90339   0.33299   0.19747   1.000
    C3019   C    0.86331   0.35438   0.22638   1.000
    C3020   C    0.87794   0.35111   0.20213   1.000
    O3021   O    0.61124   0.42559   0.46103   1.000
    O3022   O    0.77265   0.33327   0.36883   1.000
    O3023   O    0.66370   0.40801   0.44352   1.000
    O3024   O    0.81320   0.30637   0.38370   1.000
    O3025   O    0.84773   0.36082   0.31969   1.000
    O3026   O    0.95352   0.14341   0.25626   1.000
    O3027   O    0.97946   0.09285   0.28098   1.000
    O3028   O    0.90937   0.13396   0.28390   1.000
    O3029   O    0.88647   0.14205   0.32149   1.000
    O3030   O    0.79336   0.20797   0.24927   1.000
    O3031   O    0.77143   0.21218   0.28867   1.000
    O3032   O    0.79140   0.30379   0.33926   1.000
    O3033   O    0.74604   0.25801   0.29346   1.000
    O3034   O    0.86762   0.33112   0.29016   1.000
    O3035   O    0.83264   0.27746   0.35332   1.000
    O3036   O    0.93508   0.08410   0.30855   1.000
    O3037   O    0.90414   0.15737   0.33907   1.000
    H3038   H    0.57747   0.40729   0.47622   1.000
    H3039   H    0.73515   0.34037   0.40917   1.000
    H3040   H    0.69749   0.36649   0.43529   1.000
    H3041   H    0.86577   0.32174   0.38695   1.000
    H3042   H    0.79634   0.29999   0.43236   1.000
    H3043   H    0.95064   0.17176   0.21061   1.000
    H3044   H    0.97918   0.19950   0.23842   1.000
    H3045   H    0.88199   0.15579   0.25374   1.000
    H3046   H    0.84203   0.17998   0.24241   1.000
    H3047   H    0.83819   0.16567   0.32917   1.000
    H3048   H    0.79849   0.18961   0.31797   1.000
    H3049   H    0.77561   0.27242   0.34107   1.000
    H3050   H    0.75951   0.25665   0.32549   1.000
    H3051   H    0.90802   0.31059   0.25730   1.000
    H3052   H    0.93376   0.30483   0.21452   1.000
    H3053   H    0.84363   0.36814   0.22928   1.000
    H3054   H    0.86898   0.36260   0.18711   1.000
    Cr3055  Cr   0.65770   0.28384   0.11423   1.000
    Cr3056  Cr   0.53034   0.35963   0.30656   1.000
    C3057   C    0.54723   0.46092   0.42240   1.000
    C3058   C    0.51247   0.39955   0.36102   1.000
    C3059   C    0.50403   0.41455   0.37603   1.000
    C3060   C    0.42746   0.40521   0.31679   1.000
    C3061   C    0.47489   0.38220   0.31227   1.000
    C3062   C    0.45167   0.40641   0.31089   1.000
    C3063   C    0.45304   0.43068   0.30458   1.000
    C3064   C    0.64843   0.20837   0.18594   1.000
    C3065   C    0.62501   0.25305   0.15936   1.000
    C3066   C    0.62494   0.22795   0.18218   1.000
    C3067   C    0.60143   0.22390   0.20145   1.000
    C3068   C    0.70516   0.26799   0.16297   1.000
    C3069   C    0.66831   0.29961   0.14404   1.000
    C3070   C    0.68530   0.29240   0.15870   1.000
    C3071   C    0.72083   0.26152   0.17681   1.000
    C3072   C    0.73261   0.27199   0.20310   1.000
    C3073   C    0.71726   0.27927   0.18675   1.000
    C3074   C    0.68190   0.31016   0.16851   1.000
    C3075   C    0.69757   0.30374   0.18222   1.000
    C3076   C    0.62099   0.32264   0.28425   1.000
    C3077   C    0.64841   0.31363   0.27520   1.000
    C3078   C    0.53632   0.24194   0.32224   1.000
    C3079   C    0.52830   0.27304   0.34166   1.000
    C3080   C    0.53987   0.24672   0.33972   1.000
    C3081   C    0.54938   0.21750   0.31889   1.000
    C3082   C    0.66808   0.33257   0.07796   1.000
    C3083   C    0.56615   0.19747   0.33299   1.000
    C3084   C    0.55592   0.22638   0.35438   1.000
    C3085   C    0.56881   0.20213   0.35111   1.000
    O3086   O    0.50214   0.46103   0.42559   1.000
    O3087   O    0.52525   0.36883   0.33327   1.000
    O3088   O    0.48477   0.44352   0.40801   1.000
    O3089   O    0.49673   0.38370   0.30637   1.000
    O3090   O    0.47176   0.31969   0.36082   1.000
    O3091   O    0.64681   0.25626   0.14341   1.000
    O3092   O    0.64670   0.28098   0.09285   1.000
    O3093   O    0.67277   0.28390   0.13396   1.000
    O3094   O    0.65000   0.32149   0.14205   1.000
    O3095   O    0.74940   0.24927   0.20797   1.000
    O3096   O    0.72771   0.28867   0.21218   1.000
    O3097   O    0.56556   0.33926   0.30379   1.000
    O3098   O    0.70249   0.29346   0.25801   1.000
    O3099   O    0.51111   0.29016   0.33112   1.000
    O3100   O    0.53657   0.35332   0.27746   1.000
    O3101   O    0.67227   0.30855   0.08410   1.000
    O3102   O    0.59943   0.33907   0.15737   1.000
    H3103   H    0.53902   0.47622   0.40729   1.000
    H3104   H    0.51532   0.40917   0.34037   1.000
    H3105   H    0.50073   0.43529   0.36649   1.000
    H3106   H    0.42554   0.38695   0.32174   1.000
    H3107   H    0.47131   0.43236   0.29999   1.000
    H3108   H    0.66698   0.21061   0.17176   1.000
    H3109   H    0.58290   0.23842   0.19950   1.000
    H3110   H    0.70849   0.25374   0.15579   1.000
    H3111   H    0.73557   0.24241   0.17998   1.000
    H3112   H    0.66698   0.32917   0.16567   1.000
    H3113   H    0.69394   0.31797   0.18961   1.000
    H3114   H    0.61090   0.34107   0.27242   1.000
    H3115   H    0.65835   0.32549   0.25665   1.000
    H3116   H    0.52408   0.25730   0.31059   1.000
    H3117   H    0.54690   0.21452   0.30483   1.000
    H3118   H    0.55895   0.22928   0.36814   1.000
    H3119   H    0.58131   0.18711   0.36260   1.000
    Cr3120  Cr   0.41880   0.47185   0.47185   1.000
    Cr3121  Cr   0.47185   0.41880   0.63750   1.000
    Cr3122  Cr   0.47185   0.63750   0.41880   1.000
    Cr3123  Cr   0.63750   0.47185   0.47185   1.000
    Cr3124  Cr   0.47185   0.41880   0.47185   1.000
    Cr3125  Cr   0.63750   0.47185   0.41880   1.000
    Cr3126  Cr   0.41880   0.47185   0.63750   1.000
    Cr3127  Cr   0.47185   0.63750   0.47185   1.000
    Cr3128  Cr   0.47185   0.47185   0.41880   1.000
    Cr3129  Cr   0.41880   0.63750   0.47185   1.000
    Cr3130  Cr   0.63750   0.41880   0.47185   1.000
    Cr3131  Cr   0.47185   0.47185   0.63750   1.000
    Cr3132  Cr   0.83120   0.77815   0.61250   1.000
    Cr3133  Cr   0.77815   0.83120   0.77815   1.000
    Cr3134  Cr   0.77815   0.61250   0.77815   1.000
    Cr3135  Cr   0.61250   0.77815   0.83120   1.000
    Cr3136  Cr   0.77815   0.83120   0.61250   1.000
    Cr3137  Cr   0.61250   0.77815   0.77815   1.000
    Cr3138  Cr   0.83120   0.77815   0.77815   1.000
    Cr3139  Cr   0.77815   0.61250   0.83120   1.000
    Cr3140  Cr   0.77815   0.77815   0.61250   1.000
    Cr3141  Cr   0.83120   0.61250   0.77815   1.000
    Cr3142  Cr   0.61250   0.83120   0.77815   1.000
    Cr3143  Cr   0.77815   0.77815   0.83120   1.000
    Cr3144  Cr   0.12500   0.34065   0.62500   1.000
    O3145   O    0.12500   0.31008   0.62500   1.000
    Cr3146  Cr   0.34065   0.12500   0.90935   1.000
    O3147   O    0.31008   0.12500   0.93992   1.000
    Cr3148  Cr   0.62500   0.90935   0.12500   1.000
    O3149   O    0.62500   0.93992   0.12500   1.000
    Cr3150  Cr   0.90935   0.62500   0.34065   1.000
    O3151   O    0.93992   0.62500   0.31008   1.000
    Cr3152  Cr   0.62500   0.12500   0.34065   1.000
    O3153   O    0.62500   0.12500   0.31008   1.000
    Cr3154  Cr   0.90935   0.34065   0.12500   1.000
    O3155   O    0.93992   0.31008   0.12500   1.000
    Cr3156  Cr   0.12500   0.62500   0.90935   1.000
    O3157   O    0.12500   0.62500   0.93992   1.000
    Cr3158  Cr   0.34065   0.90935   0.62500   1.000
    O3159   O    0.31008   0.93992   0.62500   1.000
    Cr3160  Cr   0.34065   0.62500   0.12500   1.000
    O3161   O    0.31008   0.62500   0.12500   1.000
    Cr3162  Cr   0.12500   0.90935   0.34065   1.000
    O3163   O    0.12500   0.93992   0.31008   1.000
    Cr3164  Cr   0.90935   0.12500   0.62500   1.000
    O3165   O    0.93992   0.12500   0.62500   1.000
    Cr3166  Cr   0.62500   0.34065   0.90935   1.000
    O3167   O    0.62500   0.31008   0.93992   1.000
    Cr3168  Cr   0.12500   0.90935   0.62500   1.000
    O3169   O    0.12500   0.93992   0.62500   1.000
    Cr3170  Cr   0.90935   0.12500   0.34065   1.000
    O3171   O    0.93992   0.12500   0.31008   1.000
    Cr3172  Cr   0.62500   0.34065   0.12500   1.000
    O3173   O    0.62500   0.31008   0.12500   1.000
    Cr3174  Cr   0.34065   0.62500   0.90935   1.000
    O3175   O    0.31008   0.62500   0.93992   1.000
    Cr3176  Cr   0.62500   0.12500   0.90935   1.000
    O3177   O    0.62500   0.12500   0.93992   1.000
    Cr3178  Cr   0.34065   0.90935   0.12500   1.000
    O3179   O    0.31008   0.93992   0.12500   1.000
    Cr3180  Cr   0.12500   0.62500   0.34065   1.000
    O3181   O    0.12500   0.62500   0.31008   1.000
    Cr3182  Cr   0.90935   0.34065   0.62500   1.000
    O3183   O    0.93992   0.31008   0.62500   1.000
    Cr3184  Cr   0.90935   0.62500   0.12500   1.000
    O3185   O    0.93992   0.62500   0.12500   1.000
    Cr3186  Cr   0.12500   0.34065   0.90935   1.000
    O3187   O    0.12500   0.31008   0.93992   1.000
    Cr3188  Cr   0.34065   0.12500   0.62500   1.000
    O3189   O    0.31008   0.12500   0.62500   1.000
    Cr3190  Cr   0.62500   0.90935   0.34065   1.000
    O3191   O    0.62500   0.93992   0.31008   1.000
    Cr3192  Cr   0.22983   0.22983   0.77017   1.000
    O3193   O    0.25157   0.25157   0.74843   1.000
    Cr3194  Cr   0.77017   0.77017   0.22983   1.000
    O3195   O    0.74843   0.74843   0.25157   1.000
    Cr3196  Cr   0.77017   0.22983   0.22983   1.000
    O3197   O    0.74843   0.25157   0.25157   1.000
    Cr3198  Cr   0.22983   0.77017   0.77017   1.000
    O3199   O    0.25157   0.74843   0.74843   1.000
    Cr3200  Cr   0.22983   0.77017   0.22983   1.000
    O3201   O    0.25157   0.74843   0.25157   1.000
    Cr3202  Cr   0.77017   0.22983   0.77017   1.000
    O3203   O    0.74843   0.25157   0.74843   1.000
    Cr3204  Cr   0.02017   0.02017   0.47983   1.000
    O3205   O    0.99843   0.99843   0.50157   1.000
    Cr3206  Cr   0.47983   0.47983   0.02017   1.000
    O3207   O    0.50157   0.50157   0.99843   1.000
    Cr3208  Cr   0.47983   0.02017   0.47983   1.000
    O3209   O    0.50157   0.99843   0.50157   1.000
    Cr3210  Cr   0.02017   0.47983   0.02017   1.000
    O3211   O    0.99843   0.50157   0.99843   1.000
    Cr3212  Cr   0.02017   0.47983   0.47983   1.000
    O3213   O    0.99843   0.50157   0.50157   1.000
    Cr3214  Cr   0.47983   0.02017   0.02017   1.000
    O3215   O    0.50157   0.99843   0.99843   1.000
    Cr3216  Cr   0.23592   0.28896   0.73756   1.000
    Cr3217  Cr   0.28896   0.23592   0.73756   1.000
    Cr3218  Cr   0.73756   0.73756   0.23592   1.000
    Cr3219  Cr   0.73756   0.73756   0.28896   1.000
    Cr3220  Cr   0.73756   0.23592   0.28896   1.000
    Cr3221  Cr   0.73756   0.28896   0.23592   1.000
    Cr3222  Cr   0.23592   0.73756   0.73756   1.000
    Cr3223  Cr   0.28896   0.73756   0.73756   1.000
    Cr3224  Cr   0.28896   0.73756   0.23592   1.000
    Cr3225  Cr   0.23592   0.73756   0.28896   1.000
    Cr3226  Cr   0.73756   0.23592   0.73756   1.000
    Cr3227  Cr   0.73756   0.28896   0.73756   1.000
    Cr3228  Cr   0.01408   0.96104   0.51244   1.000
    Cr3229  Cr   0.96104   0.01408   0.51244   1.000
    Cr3230  Cr   0.51244   0.51244   0.96104   1.000
    Cr3231  Cr   0.51244   0.51244   0.01408   1.000
    Cr3232  Cr   0.51244   0.01408   0.51244   1.000
    Cr3233  Cr   0.51244   0.96104   0.51244   1.000
    Cr3234  Cr   0.01408   0.51244   0.96104   1.000
    Cr3235  Cr   0.96104   0.51244   0.01408   1.000
    Cr3236  Cr   0.96104   0.51244   0.51244   1.000
    Cr3237  Cr   0.01408   0.51244   0.51244   1.000
    Cr3238  Cr   0.51244   0.01408   0.96104   1.000
    Cr3239  Cr   0.51244   0.96104   0.01408   1.000
    Cr3240  Cr   0.32574   0.32574   0.49285   1.000
    C3241   C    0.35723   0.35723   0.52298   1.000
    C3242   C    0.37266   0.37266   0.51646   1.000
    C3243   C    0.41918   0.41918   0.48908   1.000
    C3244   C    0.40303   0.40303   0.49938   1.000
    C3245   C    0.31762   0.31762   0.57750   1.000
    C3246   C    0.30807   0.30807   0.60680   1.000
    C3247   C    0.28000   0.28000   0.69049   1.000
    C3248   C    0.28965   0.28965   0.66272   1.000
    O3249   O    0.33063   0.33063   0.51787   1.000
    Cr3250  Cr   0.32574   0.32574   0.85566   1.000
    C3251   C    0.35723   0.35723   0.76256   1.000
    C3252   C    0.37266   0.37266   0.73822   1.000
    C3253   C    0.41918   0.41918   0.67257   1.000
    C3254   C    0.40303   0.40303   0.69455   1.000
    C3255   C    0.31762   0.31762   0.78725   1.000
    C3256   C    0.30807   0.30807   0.77705   1.000
    C3257   C    0.28000   0.28000   0.74951   1.000
    C3258   C    0.28965   0.28965   0.75798   1.000
    O3259   O    0.33063   0.33063   0.82086   1.000
    Cr3260  Cr   0.49285   0.85566   0.32574   1.000
    C3261   C    0.52298   0.76256   0.35723   1.000
    C3262   C    0.51646   0.73822   0.37266   1.000
    C3263   C    0.48908   0.67257   0.41918   1.000
    C3264   C    0.49938   0.69455   0.40303   1.000
    C3265   C    0.57750   0.78725   0.31762   1.000
    C3266   C    0.60680   0.77705   0.30807   1.000
    C3267   C    0.69049   0.74951   0.28000   1.000
    C3268   C    0.66272   0.75798   0.28965   1.000
    O3269   O    0.51787   0.82086   0.33063   1.000
    Cr3270  Cr   0.85566   0.49285   0.32574   1.000
    C3271   C    0.76256   0.52298   0.35723   1.000
    C3272   C    0.73822   0.51646   0.37266   1.000
    C3273   C    0.67257   0.48908   0.41918   1.000
    C3274   C    0.69455   0.49938   0.40303   1.000
    C3275   C    0.78725   0.57750   0.31762   1.000
    C3276   C    0.77705   0.60680   0.30807   1.000
    C3277   C    0.74951   0.69049   0.28000   1.000
    C3278   C    0.75798   0.66272   0.28965   1.000
    O3279   O    0.82086   0.51787   0.33063   1.000
    Cr3280  Cr   0.49285   0.32574   0.32574   1.000
    C3281   C    0.52298   0.35723   0.35723   1.000
    C3282   C    0.51646   0.37266   0.37266   1.000
    C3283   C    0.48908   0.41918   0.41918   1.000
    C3284   C    0.49938   0.40303   0.40303   1.000
    C3285   C    0.57750   0.31762   0.31762   1.000
    C3286   C    0.60680   0.30807   0.30807   1.000
    C3287   C    0.69049   0.28000   0.28000   1.000
    C3288   C    0.66272   0.28965   0.28965   1.000
    O3289   O    0.51787   0.33063   0.33063   1.000
    Cr3290  Cr   0.85566   0.32574   0.32574   1.000
    C3291   C    0.76256   0.35723   0.35723   1.000
    C3292   C    0.73822   0.37266   0.37266   1.000
    C3293   C    0.67257   0.41918   0.41918   1.000
    C3294   C    0.69455   0.40303   0.40303   1.000
    C3295   C    0.78725   0.31762   0.31762   1.000
    C3296   C    0.77705   0.30807   0.30807   1.000
    C3297   C    0.74951   0.28000   0.28000   1.000
    C3298   C    0.75798   0.28965   0.28965   1.000
    O3299   O    0.82086   0.33063   0.33063   1.000
    Cr3300  Cr   0.32574   0.49285   0.85566   1.000
    C3301   C    0.35723   0.52298   0.76256   1.000
    C3302   C    0.37266   0.51646   0.73822   1.000
    C3303   C    0.41918   0.48908   0.67257   1.000
    C3304   C    0.40303   0.49938   0.69455   1.000
    C3305   C    0.31762   0.57750   0.78725   1.000
    C3306   C    0.30807   0.60680   0.77705   1.000
    C3307   C    0.28000   0.69049   0.74951   1.000
    C3308   C    0.28965   0.66272   0.75798   1.000
    O3309   O    0.33063   0.51787   0.82086   1.000
    Cr3310  Cr   0.32574   0.85566   0.49285   1.000
    C3311   C    0.35723   0.76256   0.52298   1.000
    C3312   C    0.37266   0.73822   0.51646   1.000
    C3313   C    0.41918   0.67257   0.48908   1.000
    C3314   C    0.40303   0.69455   0.49938   1.000
    C3315   C    0.31762   0.78725   0.57750   1.000
    C3316   C    0.30807   0.77705   0.60680   1.000
    C3317   C    0.28000   0.74951   0.69049   1.000
    C3318   C    0.28965   0.75798   0.66272   1.000
    O3319   O    0.33063   0.82086   0.51787   1.000
    Cr3320  Cr   0.32574   0.49285   0.32574   1.000
    C3321   C    0.35723   0.52298   0.35723   1.000
    C3322   C    0.37266   0.51646   0.37266   1.000
    C3323   C    0.41918   0.48908   0.41918   1.000
    C3324   C    0.40303   0.49938   0.40303   1.000
    C3325   C    0.31762   0.57750   0.31762   1.000
    C3326   C    0.30807   0.60680   0.30807   1.000
    C3327   C    0.28000   0.69049   0.28000   1.000
    C3328   C    0.28965   0.66272   0.28965   1.000
    O3329   O    0.33063   0.51787   0.33063   1.000
    Cr3330  Cr   0.32574   0.85566   0.32574   1.000
    C3331   C    0.35723   0.76256   0.35723   1.000
    C3332   C    0.37266   0.73822   0.37266   1.000
    C3333   C    0.41918   0.67257   0.41918   1.000
    C3334   C    0.40303   0.69455   0.40303   1.000
    C3335   C    0.31762   0.78725   0.31762   1.000
    C3336   C    0.30807   0.77705   0.30807   1.000
    C3337   C    0.28000   0.74951   0.28000   1.000
    C3338   C    0.28965   0.75798   0.28965   1.000
    O3339   O    0.33063   0.82086   0.33063   1.000
    Cr3340  Cr   0.85566   0.32574   0.49285   1.000
    C3341   C    0.76256   0.35723   0.52298   1.000
    C3342   C    0.73822   0.37266   0.51646   1.000
    C3343   C    0.67257   0.41918   0.48908   1.000
    C3344   C    0.69455   0.40303   0.49938   1.000
    C3345   C    0.78725   0.31762   0.57750   1.000
    C3346   C    0.77705   0.30807   0.60680   1.000
    C3347   C    0.74951   0.28000   0.69049   1.000
    C3348   C    0.75798   0.28965   0.66272   1.000
    O3349   O    0.82086   0.33063   0.51787   1.000
    Cr3350  Cr   0.49285   0.32574   0.85566   1.000
    C3351   C    0.52298   0.35723   0.76256   1.000
    C3352   C    0.51646   0.37266   0.73822   1.000
    C3353   C    0.48908   0.41918   0.67257   1.000
    C3354   C    0.49938   0.40303   0.69455   1.000
    C3355   C    0.57750   0.31762   0.78725   1.000
    C3356   C    0.60680   0.30807   0.77705   1.000
    C3357   C    0.69049   0.28000   0.74951   1.000
    C3358   C    0.66272   0.28965   0.75798   1.000
    O3359   O    0.51787   0.33063   0.82086   1.000
    Cr3360  Cr   0.92426   0.92426   0.39434   1.000
    C3361   C    0.89277   0.89277   0.48744   1.000
    C3362   C    0.87734   0.87734   0.51178   1.000
    C3363   C    0.83082   0.83082   0.57743   1.000
    C3364   C    0.84697   0.84697   0.55545   1.000
    C3365   C    0.93238   0.93238   0.46275   1.000
    C3366   C    0.94193   0.94193   0.47295   1.000
    C3367   C    0.97000   0.97000   0.50049   1.000
    C3368   C    0.96035   0.96035   0.49202   1.000
    O3369   O    0.91937   0.91937   0.42914   1.000
    Cr3370  Cr   0.92426   0.92426   0.75715   1.000
    C3371   C    0.89277   0.89277   0.72702   1.000
    C3372   C    0.87734   0.87734   0.73354   1.000
    C3373   C    0.83082   0.83082   0.76092   1.000
    C3374   C    0.84697   0.84697   0.75062   1.000
    C3375   C    0.93238   0.93238   0.67250   1.000
    C3376   C    0.94193   0.94193   0.64320   1.000
    C3377   C    0.97000   0.97000   0.55951   1.000
    C3378   C    0.96035   0.96035   0.58728   1.000
    O3379   O    0.91937   0.91937   0.73213   1.000
    Cr3380  Cr   0.75715   0.39434   0.92426   1.000
    C3381   C    0.72702   0.48744   0.89277   1.000
    C3382   C    0.73354   0.51178   0.87734   1.000
    C3383   C    0.76092   0.57743   0.83082   1.000
    C3384   C    0.75062   0.55545   0.84697   1.000
    C3385   C    0.67250   0.46275   0.93238   1.000
    C3386   C    0.64320   0.47295   0.94193   1.000
    C3387   C    0.55951   0.50049   0.97000   1.000
    C3388   C    0.58728   0.49202   0.96035   1.000
    O3389   O    0.73213   0.42914   0.91937   1.000
    Cr3390  Cr   0.39434   0.75715   0.92426   1.000
    C3391   C    0.48744   0.72702   0.89277   1.000
    C3392   C    0.51178   0.73354   0.87734   1.000
    C3393   C    0.57743   0.76092   0.83082   1.000
    C3394   C    0.55545   0.75062   0.84697   1.000
    C3395   C    0.46275   0.67250   0.93238   1.000
    C3396   C    0.47295   0.64320   0.94193   1.000
    C3397   C    0.50049   0.55951   0.97000   1.000
    C3398   C    0.49202   0.58728   0.96035   1.000
    O3399   O    0.42914   0.73213   0.91937   1.000
    Cr3400  Cr   0.75715   0.92426   0.39434   1.000
    C3401   C    0.72702   0.89277   0.48744   1.000
    C3402   C    0.73354   0.87734   0.51178   1.000
    C3403   C    0.76092   0.83082   0.57743   1.000
    C3404   C    0.75062   0.84697   0.55545   1.000
    C3405   C    0.67250   0.93238   0.46275   1.000
    C3406   C    0.64320   0.94193   0.47295   1.000
    C3407   C    0.55951   0.97000   0.50049   1.000
    C3408   C    0.58728   0.96035   0.49202   1.000
    O3409   O    0.73213   0.91937   0.42914   1.000
    Cr3410  Cr   0.39434   0.92426   0.75715   1.000
    C3411   C    0.48744   0.89277   0.72702   1.000
    C3412   C    0.51178   0.87734   0.73354   1.000
    C3413   C    0.57743   0.83082   0.76092   1.000
    C3414   C    0.55545   0.84697   0.75062   1.000
    C3415   C    0.46275   0.93238   0.67250   1.000
    C3416   C    0.47295   0.94193   0.64320   1.000
    C3417   C    0.50049   0.97000   0.55951   1.000
    C3418   C    0.49202   0.96035   0.58728   1.000
    O3419   O    0.42914   0.91937   0.73213   1.000
    Cr3420  Cr   0.92426   0.75715   0.92426   1.000
    C3421   C    0.89277   0.72702   0.89277   1.000
    C3422   C    0.87734   0.73354   0.87734   1.000
    C3423   C    0.83082   0.76092   0.83082   1.000
    C3424   C    0.84697   0.75062   0.84697   1.000
    C3425   C    0.93238   0.67250   0.93238   1.000
    C3426   C    0.94193   0.64320   0.94193   1.000
    C3427   C    0.97000   0.55951   0.97000   1.000
    C3428   C    0.96035   0.58728   0.96035   1.000
    O3429   O    0.91937   0.73213   0.91937   1.000
    Cr3430  Cr   0.92426   0.39434   0.92426   1.000
    C3431   C    0.89277   0.48744   0.89277   1.000
    C3432   C    0.87734   0.51178   0.87734   1.000
    C3433   C    0.83082   0.57743   0.83082   1.000
    C3434   C    0.84697   0.55545   0.84697   1.000
    C3435   C    0.93238   0.46275   0.93238   1.000
    C3436   C    0.94193   0.47295   0.94193   1.000
    C3437   C    0.97000   0.50049   0.97000   1.000
    C3438   C    0.96035   0.49202   0.96035   1.000
    O3439   O    0.91937   0.42914   0.91937   1.000
    Cr3440  Cr   0.92426   0.75715   0.39434   1.000
    C3441   C    0.89277   0.72702   0.48744   1.000
    C3442   C    0.87734   0.73354   0.51178   1.000
    C3443   C    0.83082   0.76092   0.57743   1.000
    C3444   C    0.84697   0.75062   0.55545   1.000
    C3445   C    0.93238   0.67250   0.46275   1.000
    C3446   C    0.94193   0.64320   0.47295   1.000
    C3447   C    0.97000   0.55951   0.50049   1.000
    C3448   C    0.96035   0.58728   0.49202   1.000
    O3449   O    0.91937   0.73213   0.42914   1.000
    Cr3450  Cr   0.92426   0.39434   0.75715   1.000
    C3451   C    0.89277   0.48744   0.72702   1.000
    C3452   C    0.87734   0.51178   0.73354   1.000
    C3453   C    0.83082   0.57743   0.76092   1.000
    C3454   C    0.84697   0.55545   0.75062   1.000
    C3455   C    0.93238   0.46275   0.67250   1.000
    C3456   C    0.94193   0.47295   0.64320   1.000
    C3457   C    0.97000   0.50049   0.55951   1.000
    C3458   C    0.96035   0.49202   0.58728   1.000
    O3459   O    0.91937   0.42914   0.73213   1.000
    Cr3460  Cr   0.39434   0.92426   0.92426   1.000
    C3461   C    0.48744   0.89277   0.89277   1.000
    C3462   C    0.51178   0.87734   0.87734   1.000
    C3463   C    0.57743   0.83082   0.83082   1.000
    C3464   C    0.55545   0.84697   0.84697   1.000
    C3465   C    0.46275   0.93238   0.93238   1.000
    C3466   C    0.47295   0.94193   0.94193   1.000
    C3467   C    0.50049   0.97000   0.97000   1.000
    C3468   C    0.49202   0.96035   0.96035   1.000
    O3469   O    0.42914   0.91937   0.91937   1.000
    Cr3470  Cr   0.75715   0.92426   0.92426   1.000
    C3471   C    0.72702   0.89277   0.89277   1.000
    C3472   C    0.73354   0.87734   0.87734   1.000
    C3473   C    0.76092   0.83082   0.83082   1.000
    C3474   C    0.75062   0.84697   0.84697   1.000
    C3475   C    0.67250   0.93238   0.93238   1.000
    C3476   C    0.64320   0.94193   0.94193   1.000
    C3477   C    0.55951   0.97000   0.97000   1.000
    C3478   C    0.58728   0.96035   0.96035   1.000
    O3479   O    0.73213   0.91937   0.91937   1.000
    C3480   C    0.44280   0.44280   0.51229   1.000
    C3481   C    0.44188   0.44188   0.53555   1.000
    C3482   C    0.44280   0.44280   0.60211   1.000
    C3483   C    0.44188   0.44188   0.58069   1.000
    C3484   C    0.51229   0.60211   0.44280   1.000
    C3485   C    0.53555   0.58069   0.44188   1.000
    C3486   C    0.60211   0.51229   0.44280   1.000
    C3487   C    0.58069   0.53555   0.44188   1.000
    C3488   C    0.51229   0.44280   0.44280   1.000
    C3489   C    0.53555   0.44188   0.44188   1.000
    C3490   C    0.60211   0.44280   0.44280   1.000
    C3491   C    0.58069   0.44188   0.44188   1.000
    C3492   C    0.44280   0.51229   0.60211   1.000
    C3493   C    0.44188   0.53555   0.58069   1.000
    C3494   C    0.44280   0.60211   0.51229   1.000
    C3495   C    0.44188   0.58069   0.53555   1.000
    C3496   C    0.44280   0.51229   0.44280   1.000
    C3497   C    0.44188   0.53555   0.44188   1.000
    C3498   C    0.44280   0.60211   0.44280   1.000
    C3499   C    0.44188   0.58069   0.44188   1.000
    C3500   C    0.60211   0.44280   0.51229   1.000
    C3501   C    0.58069   0.44188   0.53555   1.000
    C3502   C    0.51229   0.44280   0.60211   1.000
    C3503   C    0.53555   0.44188   0.58069   1.000
    C3504   C    0.80720   0.80720   0.64789   1.000
    C3505   C    0.80812   0.80812   0.66931   1.000
    C3506   C    0.80720   0.80720   0.73771   1.000
    C3507   C    0.80812   0.80812   0.71445   1.000
    C3508   C    0.73771   0.64789   0.80720   1.000
    C3509   C    0.71445   0.66931   0.80812   1.000
    C3510   C    0.64789   0.73771   0.80720   1.000
    C3511   C    0.66931   0.71445   0.80812   1.000
    C3512   C    0.73771   0.80720   0.64789   1.000
    C3513   C    0.71445   0.80812   0.66931   1.000
    C3514   C    0.64789   0.80720   0.73771   1.000
    C3515   C    0.66931   0.80812   0.71445   1.000
    C3516   C    0.80720   0.73771   0.80720   1.000
    C3517   C    0.80812   0.71445   0.80812   1.000
    C3518   C    0.80720   0.64789   0.80720   1.000
    C3519   C    0.80812   0.66931   0.80812   1.000
    C3520   C    0.80720   0.73771   0.64789   1.000
    C3521   C    0.80812   0.71445   0.66931   1.000
    C3522   C    0.80720   0.64789   0.73771   1.000
    C3523   C    0.80812   0.66931   0.71445   1.000
    C3524   C    0.64789   0.80720   0.80720   1.000
    C3525   C    0.66931   0.80812   0.80812   1.000
    C3526   C    0.73771   0.80720   0.80720   1.000
    C3527   C    0.71445   0.80812   0.80812   1.000
    O3528   O    0.45414   0.45414   0.45414   1.000
    O3529   O    0.45414   0.45414   0.63759   1.000
    O3530   O    0.45414   0.63759   0.45414   1.000
    O3531   O    0.63759   0.45414   0.45414   1.000
    O3532   O    0.79586   0.79586   0.61241   1.000
    O3533   O    0.79586   0.79586   0.79586   1.000
    O3534   O    0.79586   0.61241   0.79586   1.000
    O3535   O    0.61241   0.79586   0.79586   1.000
loop_
    _geom_bond_atom_site_label_1
    _geom_bond_atom_site_label_2
    _geom_bond_distance
    _geom_bond_site_symmetry_2
    _ccdc_geom_bond_type
    O1795  Cr3206    1.89821      .   S
    O1795  C1772     1.27469  1_554   S
    O2185  Cr3210    1.89821      .   S
    O2185  C2162     1.27469  1_554   S
    O1470  Cr3214    1.89821      .   S
    O1470  C1447     1.27469  1_554   S
    O1860  Cr3214    1.89821      .   S
    O1860  C1837     1.27469  1_554   S
    O950   Cr3206    1.89821      .   S
    O950   C927      1.27469  1_554   S
    O1210  Cr3210    1.89821      .   S
    O1210  C1187     1.27469  1_554   S
    C1845  C1843     1.41016      .   S
    C1845  C1849     1.40076      .   S
    C1845  C1844     1.47969  1_554   S
    C1780  C1778     1.41016      .   S
    C1780  C1784     1.40111      .   S
    C1780  C1779     1.47969  1_554   S
    C935   C933      1.41016      .   S
    C935   C939      1.40111      .   S
    C935   C934      1.47969  1_554   S
    C1195  C1193     1.41016      .   S
    C1195  C1199     1.40076      .   S
    C1195  C1194     1.47969  1_554   S
    C2170  C2168     1.41016      .   S
    C2170  C2174     1.40113      .   S
    C2170  C2169     1.47969  1_554   S
    C1455  C1453     1.41016      .   S
    C1455  C1459     1.40113      .   S
    C1455  C1454     1.47969  1_554   S
    H2201  C2161     1.08341  1_554   S
    H1486  C1446     1.08341  1_554   S
    H1876  C1836     1.08292  1_554   S
    H966   C926      1.08299  1_554   S
    H1226  C1186     1.08292  1_554   S
    H1811  C1771     1.08299  1_554   S
    C933   C936      1.40238      .   S
    C933   H971      1.08281  1_554   S
    C2168  C2171     1.40238      .   S
    C2168  H2206     1.08279  1_554   S
    C1778  C1781     1.40238      .   S
    C1778  H1816     1.08281  1_554   S
    C1193  C1196     1.40238      .   S
    C1193  H1231     1.08317  1_554   S
    C1843  C1846     1.40238      .   S
    C1843  H1881     1.08317  1_554   S
    C1453  C1456     1.40238      .   S
    C1453  H1491     1.08279  1_554   S
    H2199  C2157     1.08252      .   S
    H1484  C1442     1.08252      .   S
    H964   C922      1.08252      .   S
    H1874  C1832     1.08252      .   S
    H1809  C1767     1.08252      .   S
    H1224  C1182     1.08252      .   S
    Cr3239 O1926     1.88921      .   S
    Cr3239 O1536     1.88967      .   S
    Cr3239 O1928     1.89044  1_554   S
    Cr3239 O1538     1.89044  1_554   S
    Cr3239 O3215     1.92625  1_554   S
    Cr3235 O2121     1.88967      .   S
    Cr3235 O1276     1.88921      .   S
    Cr3235 O1278     1.89044  1_554   S
    Cr3235 O2123     1.89044  1_554   S
    Cr3235 O3211     1.92625  1_554   S
    Cr3231 O1016     1.88931      .   S
    Cr3231 O1731     1.88931      .   S
    Cr3231 O1733     1.89044  1_554   S
    Cr3231 O1018     1.89044  1_554   S
    Cr3231 O3207     1.92625  1_554   S
    Cr3206 O1730     1.89821      .   S
    Cr3206 O1015     1.89821      .   S
    Cr3210 O1275     1.89821      .   S
    Cr3210 O2120     1.89821      .   S
    Cr3214 O1535     1.89821      .   S
    Cr3214 O1925     1.89821      .   S
    H1493  C1459     1.08312      .   S
    H1883  C1849     1.08353      .   S
    H1233  C1199     1.08353      .   S
    H1818  C1784     1.08292      .   S
    H973   C939      1.08292      .   S
    H2208  C2174     1.08312      .   S
    C1831  C1832     1.41158      .   S
    C1831  C1829     1.41084      .   S
    C1831  C1830     1.51096  1_554   S
    C1441  C1442     1.41113      .   S
    C1441  C1439     1.41127      .   S
    C1441  C1440     1.51099  1_554   S
    C1181  C1182     1.41158      .   S
    C1181  C1179     1.41084      .   S
    C1181  C1180     1.51096  1_554   S
    C2156  C2157     1.41113      .   S
    C2156  C2154     1.41127      .   S
    C2156  C2155     1.51099  1_554   S
    C921   C922      1.41173      .   S
    C921   C919      1.41100      .   S
    C921   C920      1.51070  1_554   S
    C1766  C1767     1.41173      .   S
    C1766  C1764     1.41100      .   S
    C1766  C1765     1.51070  1_554   S
    C2174  C2175     1.39027      .   S
    C1459  C1460     1.39027      .   S
    C939   C940      1.39027      .   S
    C1849  C1850     1.39027      .   S
    C1199  C1200     1.39027      .   S
    C1784  C1785     1.39027      .   S
    C1442  C1897     1.41076      .   S
    C1832  C1507     1.41076      .   S
    C922   C1702     1.41076      .   S
    C2157  C1247     1.41076      .   S
    C1767  C987      1.41076      .   S
    C1182  C2092     1.41076      .   S
    C1846  H1882     1.08273      .   S
    C1846  C1848     1.40426      .   S
    C1781  H1817     1.08334      .   S
    C1781  C1783     1.40426      .   S
    C2171  H2207     1.08313      .   S
    C2171  C2173     1.40426      .   S
    C1456  H1492     1.08313      .   S
    C1456  C1458     1.40426      .   S
    C1196  H1232     1.08273      .   S
    C1196  C1198     1.40426      .   S
    C936   H972      1.08334      .   S
    C936   C938      1.40426      .   S
    O1016  C992      1.27285      .   S
    O2121  C2097     1.27227      .   S
    O1731  C1707     1.27285      .   S
    O1926  C1902     1.27252      .   S
    O1536  C1512     1.27227      .   S
    O1276  C1252     1.27252      .   S
    H1808  C1764     1.08272      .   S
    H963   C919      1.08272      .   S
    H1223  C1179     1.08286      .   S
    H2198  C2154     1.08332      .   S
    H1483  C1439     1.08332      .   S
    H1873  C1829     1.08286      .   S
    C1439  C1894     1.40950      .   S
    C919   C1699     1.40950      .   S
    C1179  C2089     1.40950      .   S
    C2154  C1244     1.40950      .   S
    C1764  C984      1.40950      .   S
    C1829  C1504     1.40950      .   S
    O1730  C1707     1.27469      .   S
    O1535  C1512     1.27469  1_545   S
    O1275  C1252     1.27469  1_455   S
    O1015  C992      1.27469      .   S
    O2120  C2097     1.27469  1_455   S
    O1925  C1902     1.27469  1_545   S
    C992   C993      1.50834      .   S
    C1707  C1708     1.50834      .   S
    C1902  C1903     1.50834      .   S
    C1252  C1253     1.50834      .   S
    C2097  C2098     1.50834      .   S
    C1512  C1513     1.50834      .   S
    C940   C938      1.40878      .   S
    C940   H974      1.08289      .   S
    C1460  C1458     1.40857      .   S
    C1460  H1494     1.08287      .   S
    C1200  C1198     1.40817      .   S
    C1200  H1234     1.08327      .   S
    C1785  C1783     1.40878      .   S
    C1785  H1819     1.08289      .   S
    C1850  C1848     1.40817      .   S
    C1850  H1884     1.08327      .   S
    C2175  C2173     1.40857      .   S
    C2175  H2209     1.08287      .   S
    C1897  H1939     1.08252      .   S
    C1897  C1896     1.41113      .   S
    C1247  H1289     1.08252      .   S
    C1247  C1246     1.41113      .   S
    C987   H1029     1.08252      .   S
    C987   C986      1.41140      .   S
    C2092  H2134     1.08252      .   S
    C2092  C2091     1.41158      .   S
    C1702  H1744     1.08252      .   S
    C1702  C1701     1.41140      .   S
    C1507  H1549     1.08252      .   S
    C1507  C1506     1.41158      .   S
    C1458  C2822     1.48126      .   S
    C1783  C547      1.48153      .   S
    C938   C3082     1.48153      .   S
    C2173  C352      1.48126      .   S
    C1848  C157      1.48129      .   S
    C1198  C2562     1.48129      .   S
    H2138  C2100     1.08289      .   S
    H1748  C1710     1.08230      .   S
    H1293  C1255     1.08263      .   S
    H1943  C1905     1.08263      .   S
    H1033  C995      1.08230      .   S
    H1553  C1515     1.08289      .   S
    C993   C995      1.41009      .   S
    C993   C991      1.41161      .   S
    C1903  C1905     1.41009      .   S
    C1903  C1901     1.41131      .   S
    C1253  C1255     1.41009      .   S
    C1253  C1251     1.41131      .   S
    C1513  C1515     1.41009      .   S
    C1513  C1511     1.41102      .   S
    C2098  C2100     1.41009      .   S
    C2098  C2096     1.41102      .   S
    C1708  C1710     1.41009      .   S
    C1708  C1706     1.41161      .   S
    C1699  C1701     1.41067      .   S
    C1699  H1743     1.08302      .   S
    C1894  C1896     1.41127      .   S
    C1894  H1938     1.08332      .   S
    C1504  C1506     1.41084      .   S
    C1504  H1548     1.08286      .   S
    C2089  C2091     1.41084      .   S
    C2089  H2133     1.08286      .   S
    C984   C986      1.41067      .   S
    C984   H1028     1.08302      .   S
    C1244  C1246     1.41127      .   S
    C1244  H1288     1.08332      .   S
    C1255  C1254     1.40647      .   S
    C995   C994      1.40647      .   S
    C1905  C1904     1.40647      .   S
    C1710  C1709     1.40647      .   S
    C2100  C2099     1.40647      .   S
    C1515  C1514     1.40647      .   S
    C2091  C2090     1.51096  1_455   S
    C1701  C1700     1.51132      .   S
    C1246  C1245     1.51099  1_455   S
    C1506  C1505     1.51096  1_545   S
    C986   C985      1.51132      .   S
    C1896  C1895     1.51099  1_545   S
    H2136  C2096     1.08292  1_455   S
    H1031  C991      1.08218      .   S
    H1291  C1251     1.08341  1_455   S
    H1551  C1511     1.08292  1_545   S
    H1746  C1706     1.08218      .   S
    H1941  C1901     1.08341  1_545   S
    C991   C988      1.41201      .   S
    C1901  C1898     1.41201      .   S
    C1511  C1508     1.41201      .   S
    C1251  C1248     1.41201      .   S
    C1706  C1703     1.41201      .   S
    C2096  C2093     1.41201      .   S
    C157   O176      1.27271      .   S
    C157   O1542     1.26278      .   S
    C3082  O3101     1.27213      .   S
    C3082  O1737     1.26278      .   S
    C2562  O2581     1.27271      .   S
    C2562  O2127     1.26278      .   S
    C352   O371      1.27227      .   S
    C352   O1282     1.26278      .   S
    C547   O566      1.27213      .   S
    C547   O1022     1.26278      .   S
    C2822  O2841     1.27227      .   S
    C2822  O1932     1.26278      .   S
    C1254  H1292     1.08286      .   S
    C1254  C1250     1.41033      .   S
    C1904  H1942     1.08286      .   S
    C1904  C1900     1.41033      .   S
    C1709  H1747     1.08224      .   S
    C1709  C1705     1.41033      .   S
    C2099  H2137     1.08261      .   S
    C2099  C2095     1.41033      .   S
    C994   H1032     1.08224      .   S
    C994   C990      1.41033      .   S
    C1514  H1552     1.08261      .   S
    C1514  C1510     1.41033      .   S
    O2841  Cr2795    1.89273      .   S
    O3101  Cr3055    1.89273      .   S
    O2581  Cr2535    1.89273      .   S
    O566   Cr520     1.89273      .   S
    O371   Cr325     1.89273      .   S
    O176   Cr130     1.89273      .   S
    C988   C990      1.41150      .   S
    C988   H1030     1.08234      .   S
    C1248  C1250     1.41088      .   S
    C1248  H1290     1.08234      .   S
    C1703  C1705     1.41150      .   S
    C1703  H1745     1.08234      .   S
    C2093  C2095     1.41116      .   S
    C2093  H2135     1.08234      .   S
    C1898  C1900     1.41088      .   S
    C1898  H1940     1.08234      .   S
    C1508  C1510     1.41116      .   S
    C1508  H1550     1.08234      .   S
    C1895  O2832     1.27552      .   S
    C1895  O1921     1.27399      .   S
    C985   O557      1.27492      .   S
    C985   O1011     1.27399      .   S
    C1505  O167      1.27509      .   S
    C1505  O1531     1.27399      .   S
    C1245  O362      1.27552      .   S
    C1245  O1271     1.27399      .   S
    C1700  O3092     1.27492      .   S
    C1700  O1726     1.27399      .   S
    C2090  O2572     1.27509      .   S
    C2090  O2116     1.27399      .   S
    C990   C989      1.50873      .   S
    C1250  C1249     1.50873      .   S
    C1900  C1899     1.50873      .   S
    C1705  C1704     1.50873      .   S
    C1510  C1509     1.50873      .   S
    C2095  C2094     1.50873      .   S
    O1022  Cr3160    1.84888      .   S
    O1737  Cr3172    1.84888      .   S
    O1932  Cr3178    1.84913      .   S
    O2127  Cr3184    1.84892      .   S
    O1542  Cr3148    1.84892      .   S
    O1282  Cr3154    1.84913      .   S
    O2572  Cr2535    1.89948      .   S
    O557   Cr520     1.89988      .   S
    O167   Cr130     1.89948      .   S
    O3092  Cr3055    1.89988      .   S
    O2832  Cr2795    1.89940      .   S
    O362   Cr325     1.89940      .   S
    C1899  O1924     1.27302      .   S
    C1899  O1923     1.27495      .   S
    C1509  O1534     1.27276      .   S
    C1509  O1533     1.27495      .   S
    C1704  O1729     1.27239      .   S
    C1704  O1728     1.27495      .   S
    C1249  O1274     1.27302      .   S
    C1249  O1273     1.27495      .   S
    C989   O1014     1.27239      .   S
    C989   O1013     1.27495      .   S
    C2094  O2119     1.27276      .   S
    C2094  O2118     1.27495      .   S
    O1921  Cr1885    1.89409      .   S
    O1271  Cr1235    1.89409      .   S
    O1011  Cr975     1.89409      .   S
    O1726  Cr1690    1.89409      .   S
    O2116  Cr2080    1.89409      .   S
    O1531  Cr1495    1.89409      .   S
    O1924  Cr3178    1.88823      .   S
    O1729  Cr3172    1.88869      .   S
    O1274  Cr3154    1.88823      .   S
    O1534  Cr3148    1.88873      .   S
    O2119  Cr3184    1.88873      .   S
    O1014  Cr3160    1.88869      .   S
    Cr325  O363      1.90167      .   S
    Cr325  O361      1.89409      .   S
    Cr2795 O2833     1.90167      .   S
    Cr2795 O2831     1.89409      .   S
    Cr520  O558      1.90167      .   S
    Cr520  O556      1.89409      .   S
    Cr130  O168      1.90167      .   S
    Cr130  O166      1.89409      .   S
    Cr2535 O2573     1.90167      .   S
    Cr2535 O2571     1.89409      .   S
    Cr3055 O3173     1.93298      .   S
    Cr3055 O3093     1.90167      .   S
    Cr3055 O3091     1.89409      .   S
    O1013  Cr975     1.90167      .   S
    O2118  Cr2080    1.90167      .   S
    O1533  Cr1495    1.90167      .   S
    O1923  Cr1885    1.90167      .   S
    O1273  Cr1235    1.90167      .   S
    O1728  Cr1690    1.90167      .   S
    Cr3178 O3179     1.92102      .   S
    Cr3178 O2834     1.88823      .   S
    Cr3178 O2842     1.84913      .   S
    Cr3148 O3149     1.92102      .   S
    Cr3148 O169      1.88869      .   S
    Cr3148 O177      1.84888      .   S
    O3149  Cr1495    1.93298      .   S
    Cr3154 O3155     1.92102      .   S
    Cr3154 O364      1.88823      .   S
    Cr3154 O372      1.84913      .   S
    O3179  Cr1885    1.93298      .   S
    O3173  Cr3172    1.92102      .   S
    Cr3172 O3094     1.88873      .   S
    Cr3172 O3102     1.84892      .   S
    Cr3184 O3185     1.92102      .   S
    Cr3184 O2574     1.88869      .   S
    Cr3184 O2582     1.84888      .   S
    O3185  Cr2080    1.93298      .   S
    O3161  Cr3160    1.92102      .   S
    O3161  Cr975     1.93298      .   S
    Cr3160 O559      1.88873      .   S
    Cr3160 O567      1.84892      .   S
    O3155  Cr1235    1.93298      .   S
    O168   C144      1.27495      .   S
    O3093  C3069     1.27495      .   S
    O2833  C2809     1.27495      .   S
    O363   C339      1.27495      .   S
    O558   C534      1.27495      .   S
    O2573  C2549     1.27495      .   S
    Cr2080 O2117     1.89988      .   S
    Cr2080 O2126     1.89273      .   S
    Cr1235 O1272     1.89940      .   S
    Cr1235 O1281     1.89273      .   S
    Cr1885 O1922     1.89940      .   S
    Cr1885 O1931     1.89273      .   S
    Cr1495 O1532     1.89988      .   S
    Cr1495 O1541     1.89273      .   S
    Cr1690 O1727     1.89948      .   S
    Cr1690 O1736     1.89273      .   S
    Cr975  O1012     1.89948      .   S
    Cr975  O1021     1.89273      .   S
    O169   C144      1.27239      .   S
    O3094  C3069     1.27276      .   S
    O364   C339      1.27302      .   S
    O559   C534      1.27276      .   S
    O2574  C2549     1.27239      .   S
    O2834  C2809     1.27302      .   S
    O2831  C2805     1.27399      .   S
    O166   C140      1.27399      .   S
    O556   C530      1.27399      .   S
    O2571  C2545     1.27399      .   S
    O361   C335      1.27399      .   S
    O3091  C3065     1.27399      .   S
    C339   C340      1.50873      .   S
    C534   C535      1.50873      .   S
    C144   C145      1.50873      .   S
    C2549  C2550     1.50873      .   S
    C2809  C2810     1.50873      .   S
    C3069  C3070     1.50873      .   S
    H575   C533      1.08234      .   S
    H2590  C2548     1.08234      .   S
    H380   C338      1.08234      .   S
    H185   C143      1.08234      .   S
    H3110  C3068     1.08234      .   S
    H2850  C2808     1.08234      .   S
    O1922  C2805     1.27552      .   S
    O1727  C3065     1.27509      .   S
    O2117  C2545     1.27492      .   S
    O1272  C335      1.27552      .   S
    O1532  C140      1.27492      .   S
    O1012  C530      1.27509      .   S
    O2582  C2107     1.26278      .   S
    O567   C1002     1.26278      .   S
    O2842  C1912     1.26278      .   S
    O372   C1262     1.26278      .   S
    O177   C1522     1.26278      .   S
    O3102  C1717     1.26278      .   S
    C535   C533      1.41116      .   S
    C535   C539      1.41033      .   S
    C2810  C2808     1.41088      .   S
    C2810  C2814     1.41033      .   S
    C2550  C2548     1.41150      .   S
    C2550  C2554     1.41033      .   S
    C340   C338      1.41088      .   S
    C340   C344      1.41033      .   S
    C3070  C3068     1.41116      .   S
    C3070  C3074     1.41033      .   S
    C145   C143      1.41150      .   S
    C145   C149      1.41033      .   S
    C335   C336      1.51099      .   S
    C3065  C3066     1.51096      .   S
    C530   C531      1.51096      .   S
    C2805  C2806     1.51099      .   S
    C2545  C2546     1.51132      .   S
    C140   C141      1.51132      .   S
    C533   C536      1.41201      .   S
    C2548  C2551     1.41201      .   S
    C338   C341      1.41201      .   S
    C143   C146      1.41201      .   S
    C3068  C3071     1.41201      .   S
    C2808  C2811     1.41201      .   S
    H187   C149      1.08224      .   S
    H577   C539      1.08261      .   S
    H2852  C2814     1.08286      .   S
    H2592  C2554     1.08224      .   S
    H382   C344      1.08286      .   S
    H3112  C3074     1.08261      .   S
    O2126  C2107     1.27213      .   S
    O1281  C1262     1.27227      .   S
    O1541  C1522     1.27213      .   S
    O1736  C1717     1.27271      .   S
    O1021  C1002     1.27271      .   S
    O1931  C1912     1.27227      .   S
    C3074  C3075     1.40647      .   S
    C149   C150      1.40647      .   S
    C539   C540      1.40647      .   S
    C2554  C2555     1.40647      .   S
    C2814  C2815     1.40647      .   S
    C344   C345      1.40647      .   S
    H183   C139      1.08302      .   S
    H2588  C2544     1.08302      .   S
    H573   C529      1.08286      .   S
    H378   C334      1.08332      .   S
    H2848  C2804     1.08332      .   S
    H3108  C3064     1.08286      .   S
    C1912  C613      1.48126      .   S
    C1262  C3018     1.48126      .   S
    C1522  C2498     1.48153      .   S
    C2107  C223      1.48153      .   S
    C1717  C288      1.48129      .   S
    C1002  C2758     1.48129      .   S
    C536   H576      1.08292      .   S
    C536   C538      1.41102      .   S
    C3071  H3111     1.08292      .   S
    C3071  C3073     1.41102      .   S
    C146   H186      1.08218      .   S
    C146   C148      1.41161      .   S
    C2811  H2851     1.08341      .   S
    C2811  C2813     1.41131      .   S
    C2551  H2591     1.08218      .   S
    C2551  C2553     1.41161      .   S
    C341   H381      1.08341      .   S
    C341   C343      1.41131      .   S
    C2546  C2544     1.41067      .   S
    C2546  C2547     1.41140      .   S
    C141   C139      1.41067      .   S
    C141   C142      1.41140      .   S
    C2806  C2804     1.41127      .   S
    C2806  C2807     1.41113      .   S
    C531   C529      1.41084      .   S
    C531   C532      1.41158      .   S
    C336   C334      1.41127      .   S
    C336   C337      1.41113      .   S
    C3066  C3064     1.41084      .   S
    C3066  C3067     1.41158      .   S
    C2815  C2813     1.41009      .   S
    C2815  H2853     1.08263      .   S
    C3075  C3073     1.41009      .   S
    C3075  H3113     1.08289      .   S
    C2555  C2553     1.41009      .   S
    C2555  H2593     1.08230      .   S
    C345   C343      1.41009      .   S
    C345   H383      1.08263      .   S
    C540   C538      1.41009      .   S
    C540   H578      1.08289      .   S
    C150   C148      1.41009      .   S
    C150   H188      1.08230      .   S
    C529   C2739     1.40950      .   S
    C2804  C594      1.40950      .   S
    C139   C2479     1.40950      .   S
    C2544  C204      1.40950      .   S
    C334   C2999     1.40950      .   S
    C3064  C269      1.40950      .   S
    C3073  C3072     1.50834      .   S
    C2553  C2552     1.50834      .   S
    C2813  C2812     1.50834      .   S
    C343   C342      1.50834      .   S
    C538   C537      1.50834      .   S
    C148   C147      1.50834      .   S
    H2534  C2500     1.08289      .   S
    H259   C225      1.08289      .   S
    H649   C615      1.08287      .   S
    H324   C290      1.08327      .   S
    H2794  C2760     1.08327      .   S
    H3054  C3020     1.08287      .   S
    C2758  C2760     1.40817      .   S
    C2758  C2756     1.40426      .   S
    C3018  C3020     1.40857      .   S
    C3018  C3016     1.40426      .   S
    C288   C290      1.40817      .   S
    C288   C286      1.40426      .   S
    C223   C225      1.40878      .   S
    C223   C221      1.40426      .   S
    C613   C615      1.40857      .   S
    C613   C611      1.40426      .   S
    C2498  C2500     1.40878      .   S
    C2498  C2496     1.40426      .   S
    H379   C337      1.08252      .   S
    H184   C142      1.08252      .   S
    H2589  C2547     1.08252      .   S
    H574   C532      1.08252      .   S
    H2849  C2807     1.08252      .   S
    H3109  C3067     1.08252      .   S
    C142   C2482     1.41076      .   S
    C337   C3002     1.41076      .   S
    C3067  C272      1.41076      .   S
    C2547  C207      1.41076      .   S
    C532   C2742     1.41076      .   S
    C2807  C597      1.41076      .   S
    C3020  C3019     1.39027      .   S
    C615   C614      1.39027      .   S
    C2760  C2759     1.39027      .   S
    C2500  C2499     1.39027      .   S
    C225   C224      1.39027      .   S
    C290   C289      1.39027      .   S
    C342   O365      1.27469      .   S
    C342   O366      1.27252      .   S
    C147   O170      1.27469      .   S
    C147   O171      1.27285      .   S
    C3072  O3095     1.27469      .   S
    C3072  O3096     1.27227      .   S
    C537   O560      1.27469      .   S
    C537   O561      1.27227      .   S
    C2812  O2835     1.27469      .   S
    C2812  O2836     1.27252      .   S
    C2552  O2575     1.27469      .   S
    C2552  O2576     1.27285      .   S
    O2835  Cr3200    1.89821      .   S
    O560   Cr3200    1.89821      .   S
    O3095  Cr3196    1.89821      .   S
    O2575  Cr3194    1.89821      .   S
    O365   Cr3196    1.89821      .   S
    O170   Cr3194    1.89821      .   S
    C2479  H2523     1.08272      .   S
    C2479  C2481     1.41100      .   S
    C204   H248      1.08272      .   S
    C204   C206      1.41100      .   S
    C269   H313      1.08286      .   S
    C269   C271      1.41084      .   S
    C2999  H3043     1.08332      .   S
    C2999  C3001     1.41127      .   S
    C594   H638      1.08332      .   S
    C594   C596      1.41127      .   S
    C2739  H2783     1.08286      .   S
    C2739  C2741     1.41084      .   S
    O2836  Cr3224    1.88921      .   S
    O561   Cr3224    1.88967      .   S
    O171   Cr3218    1.88931      .   S
    O2576  Cr3218    1.88931      .   S
    O3096  Cr3221    1.88967      .   S
    O366   Cr3221    1.88921      .   S
    H2792  C2756     1.08273      .   S
    H322   C286      1.08273      .   S
    H257   C221      1.08334      .   S
    H2532  C2496     1.08334      .   S
    H647   C611      1.08313      .   S
    H3052  C3016     1.08313      .   S
    C611   C608      1.40238      .   S
    C221   C218      1.40238      .   S
    C2496  C2493     1.40238      .   S
    C3016  C3013     1.40238      .   S
    C2756  C2753     1.40238      .   S
    C286   C283      1.40238      .   S
    C3002  C3001     1.41113      .   S
    C3002  H3044     1.08252      .   S
    C597   C596      1.41113      .   S
    C597   H639      1.08252      .   S
    C2482  C2481     1.41173      .   S
    C2482  H2524     1.08252      .   S
    C272   C271      1.41158      .   S
    C272   H314      1.08252      .   S
    C207   C206      1.41173      .   S
    C207   H249      1.08252      .   S
    C2742  C2741     1.41158      .   S
    C2742  H2784     1.08252      .   S
    C289   H323      1.08353      .   S
    C289   C285      1.40076      .   S
    C2759  H2793     1.08353      .   S
    C2759  C2755     1.40076      .   S
    C3019  H3053     1.08312      .   S
    C3019  C3015     1.40113      .   S
    C614   H648      1.08312      .   S
    C614   C610      1.40113      .   S
    C2499  H2533     1.08292      .   S
    C2499  C2495     1.40111      .   S
    C224   H258      1.08292      .   S
    C224   C220      1.40111      .   S
    C206   C205      1.51070      .   S
    C2481  C2480     1.51070      .   S
    C3001  C3000     1.51099      .   S
    C2741  C2740     1.51096      .   S
    C271   C270      1.51096      .   S
    C596   C595      1.51099      .   S
    Cr3200 O625      1.89821      .   S
    Cr3200 O2770     1.89821      .   S
    Cr3194 O235      1.89821      .   S
    Cr3194 O2510     1.89821      .   S
    Cr3196 O3030     1.89821      .   S
    Cr3196 O300      1.89821      .   S
    Cr3224 O3201     1.92625      .   S
    Cr3224 O2838     1.89044      .   S
    Cr3224 O563      1.89044      .   S
    Cr3218 O3195     1.92625      .   S
    Cr3218 O173      1.89044      .   S
    Cr3218 O2578     1.89044      .   S
    Cr3221 O3197     1.92625      .   S
    Cr3221 O3098     1.89044      .   S
    Cr3221 O368      1.89044      .   S
    C3013  C3015     1.41016      .   S
    C3013  H3051     1.08279      .   S
    C218   C220      1.41016      .   S
    C218   H256      1.08281      .   S
    C283   C285      1.41016      .   S
    C283   H321      1.08317      .   S
    C2493  C2495     1.41016      .   S
    C2493  H2531     1.08281      .   S
    C608   C610      1.41016      .   S
    C608   H646      1.08279      .   S
    C2753  C2755     1.41016      .   S
    C2753  H2791     1.08317      .   S
    H2786  C2746     1.08292      .   S
    H641   C601      1.08341      .   S
    H251   C211      1.08299      .   S
    H2526  C2486     1.08299      .   S
    H3046  C3006     1.08341      .   S
    H316   C276      1.08292      .   S
    C2495  C2494     1.47969      .   S
    C3015  C3014     1.47969      .   S
    C220   C219      1.47969      .   S
    C285   C284      1.47969      .   S
    C610   C609      1.47969      .   S
    C2755  C2754     1.47969      .   S
    O235   C212      1.27469      .   S
    O2510  C2487     1.27469      .   S
    O3030  C3007     1.27469      .   S
    O300   C277      1.27469      .   S
    O625   C602      1.27469      .   S
    O2770  C2747     1.27469      .   S
    O3197  Cr3220    1.92625      .   S
    O3195  Cr3219    1.92625      .   S
    O3201  Cr3225    1.92625      .   S
    C2740  O2766     1.27399      .   S
    C2740  O1987     1.27509      .   S
    C270   O296      1.27399      .   S
    C270   O1077     1.27509      .   S
    C3000  O3026     1.27399      .   S
    C3000  O1662     1.27552      .   S
    C205   O231      1.27399      .   S
    C205   O1337     1.27522      .   S
    C2480  O2506     1.27399      .   S
    C2480  O2312     1.27522      .   S
    C595   O621      1.27399      .   S
    C595   O817      1.27552      .   S
    H2785  C2743     1.08234      .   S
    H315   C273      1.08234      .   S
    H2525  C2483     1.08234      .   S
    H3045  C3003     1.08234      .   S
    H250   C208      1.08234      .   S
    H640   C598      1.08234      .   S
    O296   Cr260     1.89409      .   S
    O621   Cr585     1.89409      .   S
    O2766  Cr2730    1.89409      .   S
    O2506  Cr2470    1.89409      .   S
    O231   Cr195     1.89409      .   S
    O3026  Cr2990    1.89409      .   S
    H3115  C3077     1.08308      .   S
    H385   C347      1.08308      .   S
    H2855  C2817     1.08308      .   S
    H190   C152      1.08308      .   S
    H580   C542      1.08308      .   S
    H2595  C2557     1.08308      .   S
    O2838  C3337     1.27301      .   S
    O173   C3267     1.27301      .   S
    O2578  C3277     1.27301      .   S
    O3098  C3287     1.27301      .   S
    O368   C3297     1.27301      .   S
    O563   C3327     1.27301      .   S
    C2746  C2743     1.41201      .   S
    C2746  C2748     1.41102      .   S
    C2486  C2483     1.41201      .   S
    C2486  C2488     1.41150      .   S
    C3006  C3003     1.41201      .   S
    C3006  C3008     1.41131      .   S
    C601   C598      1.41201      .   S
    C601   C603      1.41131      .   S
    C211   C208      1.41201      .   S
    C211   C213      1.41150      .   S
    C276   C273      1.41201      .   S
    C276   C278      1.41102      .   S
    C2743  C2745     1.41116      .   S
    C3003  C3005     1.41088      .   S
    C2483  C2485     1.41110      .   S
    C273   C275      1.41116      .   S
    C208   C210      1.41110      .   S
    C598   C600      1.41088      .   S
    O1337  Cr1300    1.89929      .   S
    O1077  Cr1040    1.89948      .   S
    O1987  Cr1950    1.89948      .   S
    O817   Cr780     1.89940      .   S
    O1662  Cr1625    1.89940      .   S
    O2312  Cr2275    1.89929      .   S
    H1679  C1637     1.08252      .   S
    H2329  C2287     1.08252      .   S
    H1094  C1052     1.08252      .   S
    H2004  C1962     1.08252      .   S
    H1354  C1312     1.08252      .   S
    H834   C792      1.08252      .   S
    C2487  C2488     1.50834      .   S
    C2487  O2511     1.27273      .   S
    C3007  C3008     1.50834      .   S
    C3007  O3031     1.27252      .   S
    C2747  C2748     1.50834      .   S
    C2747  O2771     1.27227      .   S
    C277   C278      1.50834      .   S
    C277   O301      1.27227      .   S
    C602   C603      1.50834      .   S
    C602   O626      1.27252      .   S
    C212   C213      1.50834      .   S
    C212   O236      1.27273      .   S
    H2594  C2556     1.08260      .   S
    H384   C346      1.08260      .   S
    H2854  C2816     1.08260      .   S
    H579   C541      1.08260      .   S
    H189   C151      1.08260      .   S
    H3114  C3076     1.08260      .   S
    C3014  O370      1.27044      .   S
    C3014  O3034     1.26682      .   S
    C284   O3100     1.26993      .   S
    C284   O304      1.26639      .   S
    C609   O2840     1.27044      .   S
    C609   O629      1.26682      .   S
    C219   O2580     1.27049      .   S
    C219   O239      1.26672      .   S
    C2494  O175      1.27049      .   S
    C2494  O2514     1.26672      .   S
    C2754  O565      1.26993      .   S
    C2754  O2774     1.26639      .   S
    C3077  C3076     1.40693      .   S
    C3077  C3288     1.41318      .   S
    C347   C346      1.40693      .   S
    C347   C3298     1.41318      .   S
    C2817  C2816     1.40693      .   S
    C2817  C3338     1.41318      .   S
    C542   C541      1.40693      .   S
    C542   C3328     1.41318      .   S
    C152   C151      1.40693      .   S
    C152   C3268     1.41318      .   S
    C2557  C2556     1.40693      .   S
    C2557  C3278     1.41318      .   S
    C1637  C792      1.41076      .   S
    C1637  C1636     1.41113      .   S
    C792   C791      1.41113      .   S
    C1052  C2287     1.41076      .   S
    C1052  C1051     1.41140      .   S
    C1962  C1312     1.41076      .   S
    C1962  C1961     1.41140      .   S
    C1312  C1311     1.41173      .   S
    C2287  C2286     1.41173      .   S
    O2580  Cr2536    1.87232      .   S
    O2840  Cr2796    1.87258      .   S
    O565   Cr521     1.87307      .   S
    O3100  Cr3056    1.87307      .   S
    O370   Cr326     1.87258      .   S
    O175   Cr131     1.87232      .   S
    C2748  C2750     1.41009      .   S
    C278   C280      1.41009      .   S
    C3008  C3010     1.41009      .   S
    C213   C215      1.41009      .   S
    C603   C605      1.41009      .   S
    C2488  C2490     1.41009      .   S
    C3287  C3288     1.42548      .   S
    C3287  O303      1.27301      .   S
    C3327  C3328     1.42548      .   S
    C3327  O2773     1.27301      .   S
    C3297  C3298     1.42548      .   S
    C3297  O3033     1.27301      .   S
    C3337  C3338     1.42548      .   S
    C3337  O628      1.27301      .   S
    C3267  C3268     1.42548      .   S
    C3267  O2513     1.27301      .   S
    C3277  C3278     1.42548      .   S
    C3277  O238      1.27301      .   S
    O2507  Cr2470    1.89929      .   S
    O2507  C2285     1.27522      .   S
    O297   Cr260     1.89988      .   S
    O297   C1050     1.27492      .   S
    O622   Cr585     1.89940      .   S
    O622   C790      1.27552      .   S
    O232   Cr195     1.89929      .   S
    O232   C1310     1.27522      .   S
    O2767  Cr2730    1.89988      .   S
    O2767  C1960     1.27492      .   S
    O3027  Cr2990    1.89940      .   S
    O3027  C1635     1.27552      .   S
    Cr2470 O2508     1.90167      .   S
    Cr2470 O2516     1.89273      .   S
    Cr585  O623      1.90167      .   S
    Cr585  O631      1.89273      .   S
    Cr2990 O3028     1.90167      .   S
    Cr2990 O3036     1.89273      .   S
    Cr195  O233      1.90167      .   S
    Cr195  O241      1.89273      .   S
    Cr195  O3151     1.93298      .   S
    Cr2730 O2768     1.90167      .   S
    Cr2730 O2776     1.89273      .   S
    Cr2730 O3181     1.93298      .   S
    Cr260  O298      1.90167      .   S
    Cr260  O306      1.89273      .   S
    Cr260  O3153     1.93298      .   S
    O298   C274      1.27495      .   S
    O233   C209      1.27495      .   S
    O623   C599      1.27495      .   S
    O2508  C2484     1.27495      .   S
    O3028  C3004     1.27495      .   S
    O2768  C2744     1.27495      .   S
    C3076  C3286     1.40896      .   S
    C2556  C3276     1.40868      .   S
    C151   C3266     1.40868      .   S
    C541   C3326     1.40896      .   S
    C2816  C3336     1.40869      .   S
    C346   C3296     1.40869      .   S
    C2286  C2285     1.51070  1_545   S
    C2286  C2284     1.41100      .   S
    C1961  C1960     1.51132      .   S
    C1961  C1959     1.41067      .   S
    C1636  C1635     1.51099  1_455   S
    C1636  C1634     1.41127      .   S
    C791   C790      1.51099  1_545   S
    C791   C789      1.41127      .   S
    C1051  C1050     1.51132      .   S
    C1051  C1049     1.41067      .   S
    C1311  C1310     1.51070  1_455   S
    C1311  C1309     1.41100      .   S
    C2285  O2311     1.27399      .   S
    C1635  O1661     1.27399      .   S
    C790   O816      1.27399      .   S
    C1050  O1076     1.27399      .   S
    C1960  O1986     1.27399      .   S
    C1310  O1336     1.27399      .   S
    O236   Cr3219    1.88907      .   S
    O626   Cr3225    1.88921      .   S
    O2511  Cr3219    1.88907      .   S
    O2771  Cr3225    1.88967      .   S
    O301   Cr3220    1.88967      .   S
    O3031  Cr3220    1.88921      .   S
    Cr3225 O628      1.89044      .   S
    Cr3225 O2773     1.89044      .   S
    Cr3220 O3033     1.89044      .   S
    Cr3220 O303      1.89044      .   S
    Cr3219 O238      1.89044      .   S
    Cr3219 O2513     1.89044      .   S
    C3288  C282      1.41318      .   S
    C3328  C2752     1.41318      .   S
    C3278  C217      1.41318      .   S
    C3268  C2492     1.41318      .   S
    C3298  C3012     1.41318      .   S
    C3338  C607      1.41318      .   S
    O304   Cr3280    1.86988      .   S
    O3034  Cr3290    1.86975      .   S
    O239   Cr3270    1.87002      .   S
    O2774  Cr3320    1.86988      .   S
    O629   Cr3330    1.86975      .   S
    O2514  Cr3260    1.87002      .   S
    C2745  C2744     1.50873      .   S
    C2745  C2749     1.41033      .   S
    C210   C209      1.50873      .   S
    C210   C214      1.41033      .   S
    C600   C599      1.50873      .   S
    C600   C604      1.41033      .   S
    C3005  C3004     1.50873      .   S
    C3005  C3009     1.41033      .   S
    C2485  C2484     1.50873      .   S
    C2485  C2489     1.41033      .   S
    C275   C274      1.50873      .   S
    C275   C279      1.41033      .   S
    C1959  C1309     1.40950      .   S
    C1959  H2003     1.08302      .   S
    C2284  C1049     1.40950      .   S
    C2284  H2328     1.08272      .   S
    C1309  H1353     1.08272      .   S
    C1049  H1093     1.08302      .   S
    C789   C1634     1.40950      .   S
    C789   H833      1.08332      .   S
    C1634  H1678     1.08332      .   S
    O816   Cr780     1.89409      .   S
    O1661  Cr1625    1.89409      .   S
    O2311  Cr2275    1.89409      .   S
    O1986  Cr1950    1.89409      .   S
    O1076  Cr1040    1.89409      .   S
    O1336  Cr1300    1.89409      .   S
    C209   O234      1.27276      .   S
    C2484  O2509     1.27276      .   S
    C599   O624      1.27302      .   S
    C2744  O2769     1.27276      .   S
    C274   O299      1.27276      .   S
    C3004  O3029     1.27302      .   S
    H2587  C2543     1.08261      .   S
    H377   C333      1.08261      .   S
    H572   C528      1.08261      .   S
    H2847  C2803     1.08261      .   S
    H3107  C3063     1.08261      .   S
    H182   C138      1.08261      .   S
    C2750  C2749     1.40647      .   S
    C2750  H2788     1.08289      .   S
    C3010  C3009     1.40647      .   S
    C3010  H3048     1.08263      .   S
    C605   C604      1.40647      .   S
    C605   H643      1.08263      .   S
    C2490  C2489     1.40647      .   S
    C2490  H2528     1.08243      .   S
    C280   C279      1.40647      .   S
    C280   H318      1.08289      .   S
    C215   C214      1.40647      .   S
    C215   H253      1.08243      .   S
    O2577  Cr2536    1.88990      .   S
    O2577  C3275     1.27123      .   S
    O367   Cr326     1.88990      .   S
    O367   C3295     1.27227      .   S
    O2837  Cr2796    1.88990      .   S
    O2837  C3335     1.27227      .   S
    O3097  Cr3056    1.88990      .   S
    O3097  C3285     1.27177      .   S
    O172   Cr131     1.88990      .   S
    O172   C3265     1.27123      .   S
    O562   Cr521     1.88990      .   S
    O562   C3325     1.27177      .   S
    C138   C2803     1.40510      .   S
    C138   C137      1.40882      .   S
    C528   C3063     1.40510      .   S
    C528   C527      1.40821      .   S
    C2543  C333      1.40510      .   S
    C2543  C2542     1.40882      .   S
    C3063  C3062     1.40821      .   S
    C2803  C2802     1.40850      .   S
    C333   C332      1.40850      .   S
    H192   C156      1.08314      .   S
    H2597  C2561     1.08314      .   S
    H3117  C3081     1.08273      .   S
    H2857  C2821     1.08313      .   S
    H582   C546      1.08273      .   S
    H387   C351      1.08313      .   S
    Cr1300 O1346     1.89273      .   S
    Cr1300 O1338     1.90167      .   S
    Cr1625 O3171     1.93298      .   S
    Cr1625 O1671     1.89273      .   S
    Cr1625 O1663     1.90167      .   S
    Cr1040 O1086     1.89273      .   S
    Cr1040 O1078     1.90167      .   S
    Cr2275 O3191     1.93298      .   S
    Cr2275 O2321     1.89273      .   S
    Cr2275 O2313     1.90167      .   S
    Cr1950 O1996     1.89273      .   S
    Cr1950 O1988     1.90167      .   S
    Cr780  O3163     1.93298      .   S
    Cr780  O826      1.89273      .   S
    Cr780  O818      1.90167      .   S
    O2569  Cr2536    1.88729      .   S
    O2569  C2541     1.27072      .   S
    O359   Cr326     1.88668      .   S
    O359   C331      1.27040      .   S
    O2829  Cr2796    1.88668      .   S
    O2829  C2801     1.27040      .   S
    O164   Cr131     1.88729      .   S
    O164   C136      1.27072      .   S
    O3089  Cr3056    1.88714      .   S
    O3089  C3061     1.27101      .   S
    O554   Cr521     1.88714      .   S
    O554   C526      1.27101      .   S
    Cr3056 O3289     1.92593      .   S
    Cr3056 O3087     1.87145      .   S
    Cr521  O3329     1.92593      .   S
    Cr521  O552      1.87145      .   S
    Cr131  O3269     1.92498      .   S
    Cr131  O162      1.87187      .   S
    Cr2796 O3339     1.92532      .   S
    Cr2796 O2827     1.87172      .   S
    Cr326  O3299     1.92532      .   S
    Cr326  O357      1.87172      .   S
    Cr2536 O3279     1.92498      .   S
    Cr2536 O2567     1.87187      .   S
    C3296  C3295     1.50353      .   S
    C3296  C3011     1.40869      .   S
    C3326  C3325     1.50353      .   S
    C3326  C2751     1.40896      .   S
    C3286  C3285     1.50353      .   S
    C3286  C281      1.40896      .   S
    C3276  C3275     1.50353      .   S
    C3276  C216      1.40922      .   S
    C3266  C3265     1.50353      .   S
    C3266  C2491     1.40922      .   S
    C3336  C3335     1.50353      .   S
    C3336  C606      1.40869      .   S
    O2776  C2757     1.27213      .   S
    O241   C222      1.27224      .   S
    O2516  C2497     1.27224      .   S
    O631   C612      1.27227      .   S
    O306   C287      1.27213      .   S
    O3036  C3017     1.27227      .   S
    O3153  Cr3152    1.92102      .   S
    O3163  Cr3162    1.92102      .   S
    O3181  Cr3180    1.92102      .   S
    O3191  Cr3190    1.92102      .   S
    O3171  Cr3170    1.92102      .   S
    O3151  Cr3150    1.92102      .   S
    C214   H252      1.08264      .   S
    C604   H642      1.08286      .   S
    C279   H317      1.08261      .   S
    C2489  H2527     1.08264      .   S
    C3009  H3047     1.08286      .   S
    C2749  H2787     1.08261      .   S
    H3116  C3078     1.08317      .   S
    H386   C348      1.08279      .   S
    H2596  C2558     1.08330      .   S
    H2856  C2818     1.08279      .   S
    H581   C543      1.08317      .   S
    H191   C153      1.08330      .   S
    C332   C331      1.49256      .   S
    C332   C330      1.40665      .   S
    C2542  C2541     1.49130      .   S
    C2542  C2540     1.40697      .   S
    C527   C526      1.49193      .   S
    C527   C525      1.40726      .   S
    C3062  C3061     1.49193      .   S
    C3062  C3060     1.40726      .   S
    C137   C136      1.49130      .   S
    C137   C135      1.40697      .   S
    C2802  C2801     1.49256      .   S
    C2802  C2800     1.40665      .   S
    C2541  O230      1.26837      .   S
    C331   O3025     1.26808      .   S
    C2801  O620      1.26808      .   S
    C136   O2505     1.26837      .   S
    C526   O2765     1.26777      .   S
    C3061  O295      1.26777      .   S
    C282   C281      1.40693      .   S
    C282   H320      1.08308      .   S
    C607   C606      1.40693      .   S
    C607   H645      1.08308      .   S
    C2492  C2491     1.40693      .   S
    C2492  H2530     1.08308      .   S
    C217   C216      1.40693      .   S
    C217   H255      1.08308      .   S
    C2752  C2751     1.40693      .   S
    C2752  H2790     1.08308      .   S
    C3012  C3011     1.40693      .   S
    C3012  H3050     1.08308      .   S
    O1346  C1327     1.27224      .   S
    O2321  C2302     1.27224      .   S
    O1996  C1977     1.27271      .   S
    O1671  C1652     1.27227      .   S
    O826   C807      1.27227      .   S
    O1086  C1067     1.27271      .   S
    H2012  C1976     1.08314      .   S
    H1102  C1066     1.08314      .   S
    H842   C806      1.08313      .   S
    H1362  C1326     1.08334      .   S
    H1687  C1651     1.08313      .   S
    H2337  C2301     1.08334      .   S
    C135   C2800     1.39819      .   S
    C135   H181      1.08257      .   S
    C330   C2540     1.39819      .   S
    C330   H376      1.08257      .   S
    C3060  C525      1.39819      .   S
    C3060  H3106     1.08257      .   S
    C2540  H2586     1.08257      .   S
    C525   H571      1.08257      .   S
    C2800  H2846     1.08257      .   S
    C3295  O3032     1.27227      .   S
    C3265  O2512     1.27233      .   S
    C3275  O237      1.27233      .   S
    C3335  O627      1.27227      .   S
    C3325  O2772     1.27177      .   S
    C3285  O302      1.27177      .   S
    C546   C543      1.40238      .   S
    C546   C548      1.40426      .   S
    C351   C348      1.40238      .   S
    C351   C353      1.40426      .   S
    C2821  C2818     1.40238      .   S
    C2821  C2823     1.40426      .   S
    C156   C153      1.40238      .   S
    C156   C158      1.40426      .   S
    C3081  C3078     1.40238      .   S
    C3081  C3083     1.40426      .   S
    C2561  C2558     1.40238      .   S
    C2561  C2563     1.40426      .   S
    O620   Cr3330    1.87222      .   S
    O295   Cr3280    1.87208      .   S
    O3025  Cr3290    1.87222      .   S
    O230   Cr3270    1.87163      .   S
    O2505  Cr3260    1.87163      .   S
    O2765  Cr3320    1.87208      .   S
    O624   Cr3162    1.88823      .   S
    O299   Cr3152    1.88873      .   S
    O234   Cr3150    1.88832      .   S
    O2509  Cr3190    1.88832      .   S
    O3029  Cr3170    1.88823      .   S
    O2769  Cr3180    1.88873      .   S
    C2558  C2560     1.41016      .   S
    C153   C155      1.41016      .   S
    C2818  C2820     1.41016      .   S
    C348   C350      1.41016      .   S
    C543   C545      1.41016      .   S
    C3078  C3080     1.41016      .   S
    C2491  H2529     1.08260      .   S
    C2751  H2789     1.08260      .   S
    C281   H319      1.08260      .   S
    C216   H254      1.08260      .   S
    C3011  H3049     1.08260      .   S
    C606   H644      1.08260      .   S
    Cr3280 O3099     1.86988      .   S
    Cr3280 O3090     1.87208      .   S
    Cr3330 O2839     1.86975      .   S
    Cr3330 O2830     1.87222      .   S
    Cr3290 O369      1.86975      .   S
    Cr3290 O360      1.87222      .   S
    Cr3270 O2579     1.87089      .   S
    Cr3270 O2570     1.87206      .   S
    Cr3260 O174      1.87089      .   S
    Cr3260 O165      1.87206      .   S
    Cr3320 O564      1.86988      .   S
    Cr3320 O555      1.87208      .   S
    C1327  C2563     1.48181      .   S
    C1327  O242      1.26278      .   S
    C1652  C353      1.48126      .   S
    C1652  O3037     1.26278      .   S
    C1977  C548      1.48129      .   S
    C1977  O2777     1.26278      .   S
    C1067  C3083     1.48129      .   S
    C1067  O307      1.26278      .   S
    C2302  C158      1.48181      .   S
    C2302  O2517     1.26278      .   S
    C807   C2823     1.48126      .   S
    C807   O632      1.26278      .   S
    O3299  Cr2991    1.92532      .   S
    O3339  Cr586     1.92532      .   S
    O3269  Cr2471    1.92607      .   S
    O3329  Cr2731    1.92593      .   S
    O3279  Cr196     1.92607      .   S
    O3289  Cr261     1.92593      .   S
    O2579  C2559     1.26629      .   S
    O369   C349      1.26682      .   S
    O564   C544      1.26639      .   S
    O2839  C2819     1.26682      .   S
    O174   C154      1.26629      .   S
    O3099  C3079     1.26639      .   S
    C2497  O2322     1.26278      .   S
    C2497  C1068     1.48181      .   S
    C3017  O1672     1.26278      .   S
    C3017  C808      1.48126      .   S
    C2757  O1997     1.26278      .   S
    C2757  C1328     1.48153      .   S
    C222   O1347     1.26278      .   S
    C222   C1978     1.48181      .   S
    C287   O1087     1.26278      .   S
    C287   C2303     1.48153      .   S
    C612   O827      1.26278      .   S
    C612   C1653     1.48126      .   S
    C3083  C3085     1.40817      .   S
    C2823  C2825     1.40857      .   S
    C158   C160      1.40860      .   S
    C2563  C2565     1.40860      .   S
    C353   C355      1.40857      .   S
    C548   C550      1.40817      .   S
    O2827  C3331     1.26899      .   S
    O357   C3291     1.26899      .   S
    O3087  C3281     1.26899      .   S
    O162   C3261     1.26899      .   S
    O552   C3321     1.26899      .   S
    O2567  C3271     1.26899      .   S
    C1651  C1653     1.40426      .   S
    C1651  C1648     1.40238      .   S
    C1326  C1328     1.40426      .   S
    C1326  C1323     1.40238      .   S
    C806   C808      1.40426      .   S
    C806   C803      1.40238      .   S
    C2301  C2303     1.40426      .   S
    C2301  C2298     1.40238      .   S
    C1976  C1978     1.40426      .   S
    C1976  C1973     1.40238      .   S
    C1066  C1068     1.40426      .   S
    C1066  C1063     1.40238      .   S
    O2777  Cr3180    1.84892      .   S
    O3037  Cr3170    1.84913      .   S
    O307   Cr3152    1.84892      .   S
    O632   Cr3162    1.84913      .   S
    O2517  Cr3190    1.84852      .   S
    O242   Cr3150    1.84852      .   S
    O3032  Cr2991    1.88990      .   S
    O2772  Cr2731    1.88990      .   S
    O237   Cr196     1.88990      .   S
    O2512  Cr2471    1.88990      .   S
    O627   Cr586     1.88990      .   S
    O302   Cr261     1.88990      .   S
    C545   C544      1.47969      .   S
    C545   C549      1.40076      .   S
    C2560  C2559     1.47969      .   S
    C2560  C2564     1.40062      .   S
    C3080  C3079     1.47969      .   S
    C3080  C3084     1.40076      .   S
    C155   C154      1.47969      .   S
    C155   C159      1.40062      .   S
    C350   C349      1.47969      .   S
    C350   C354      1.40113      .   S
    C2820  C2819     1.47969      .   S
    C2820  C2824     1.40113      .   S
    H374   C328      1.08306      .   S
    H2844  C2798     1.08306      .   S
    H3104  C3058     1.08296      .   S
    H569   C523      1.08296      .   S
    H179   C133      1.08294      .   S
    H2584  C2538     1.08294      .   S
    O1338  C1314     1.27495      .   S
    O1663  C1639     1.27495      .   S
    O2313  C2289     1.27495      .   S
    O1988  C1964     1.27495      .   S
    O1078  C1054     1.27495      .   S
    O818   C794      1.27495      .   S
    Cr3170 O1672     1.84913      .   S
    Cr3170 O1664     1.88823      .   S
    Cr3180 O1997     1.84888      .   S
    Cr3180 O1989     1.88869      .   S
    Cr3190 O2322     1.84852      .   S
    Cr3190 O2314     1.88832      .   S
    Cr3150 O1347     1.84852      .   S
    Cr3150 O1339     1.88832      .   S
    Cr3152 O1087     1.84888      .   S
    Cr3152 O1079     1.88869      .   S
    Cr3162 O827      1.84913      .   S
    Cr3162 O819      1.88823      .   S
    C544   O2775     1.26993      .   S
    C2559  O240      1.27038      .   S
    C154   O2515     1.27038      .   S
    C3079  O305      1.26993      .   S
    C349   O3035     1.27044      .   S
    C2819  O630      1.27044      .   S
    H2011  C1973     1.08330      .   S
    H1101  C1063     1.08330      .   S
    H841   C803      1.08279  1_565   S
    H1361  C1323     1.08281  1_655   S
    H1686  C1648     1.08279  1_655   S
    H2336  C2298     1.08281  1_565   S
    C1068  C1070     1.40860      .   S
    C1328  C1330     1.40878      .   S
    C2303  C2305     1.40878      .   S
    C1653  C1655     1.40857      .   S
    C1978  C1980     1.40860      .   S
    C808   C810      1.40857      .   S
    C1973  C1975     1.41016      .   S
    C1648  C1650     1.41016      .   S
    C1063  C1065     1.41016      .   S
    C2298  C2300     1.41016      .   S
    C803   C805      1.41016      .   S
    C1323  C1325     1.41016      .   S
    C355   C354      1.39027      .   S
    C355   H389      1.08287      .   S
    C550   C549      1.39027      .   S
    C550   H584      1.08327      .   S
    C2565  C2564     1.39027      .   S
    C2565  H2599     1.08338      .   S
    C2825  C2824     1.39027      .   S
    C2825  H2859     1.08287      .   S
    C160   C159      1.39027      .   S
    C160   H194      1.08338      .   S
    C3085  C3084     1.39027      .   S
    C3085  H3119     1.08327      .   S
    O2515  Cr2471    1.87184      .   S
    O630   Cr586     1.87258      .   S
    O2775  Cr2731    1.87307      .   S
    O305   Cr261     1.87307      .   S
    O240   Cr196     1.87184      .   S
    O3035  Cr2991    1.87258      .   S
    C3084  H3118     1.08353      .   S
    C159   H193      1.08312      .   S
    C2824  H2858     1.08312      .   S
    C549   H583      1.08353      .   S
    C354   H388      1.08312      .   S
    C2564  H2598     1.08312      .   S
    C3331  O617      1.26899      .   S
    C3331  C3332     1.48115      .   S
    C3291  O3022     1.26899      .   S
    C3291  C3292     1.48115      .   S
    C3281  O292      1.26899      .   S
    C3281  C3282     1.48115      .   S
    C3261  O2502     1.26899      .   S
    C3261  C3262     1.48115      .   S
    C3321  O2762     1.26899      .   S
    C3321  C3322     1.48115      .   S
    C3271  O227      1.26899      .   S
    C3271  C3272     1.48115      .   S
    Cr196  O227      1.87206      .   S
    Cr196  O229      1.88703      .   S
    Cr261  O292      1.87145      .   S
    Cr261  O294      1.88714      .   S
    Cr586  O617      1.87172      .   S
    Cr586  O619      1.88668      .   S
    Cr2991 O3022     1.87172      .   S
    Cr2991 O3024     1.88668      .   S
    Cr2471 O2502     1.87206      .   S
    Cr2471 O2504     1.88703      .   S
    Cr2731 O2762     1.87145      .   S
    Cr2731 O2764     1.88714      .   S
    O555   C2736     1.26777      .   S
    O2830  C591      1.26808      .   S
    O360   C2996     1.26808      .   S
    O2570  C201      1.26792      .   S
    O165   C2476     1.26792      .   S
    O3090  C266      1.26777      .   S
    C2538  C3272     1.40603      .   S
    C2538  C2539     1.39584      .   S
    C2798  C3332     1.40603      .   S
    C2798  C2799     1.39584      .   S
    C328   C3292     1.40603      .   S
    C328   C329      1.39584      .   S
    C133   C3262     1.40603      .   S
    C133   C134      1.39584      .   S
    C523   C3322     1.40603      .   S
    C523   C524      1.39584      .   S
    C3058  C3282     1.40603      .   S
    C3058  C3059     1.39584      .   S
    C794   O819      1.27302      .   S
    C794   C795      1.50873      .   S
    C1314  O1339     1.27276      .   S
    C1314  C1315     1.50873      .   S
    C1639  O1664     1.27302      .   S
    C1639  C1640     1.50873      .   S
    C2289  O2314     1.27276      .   S
    C2289  C2290     1.50873      .   S
    C1964  O1989     1.27239      .   S
    C1964  C1965     1.50873      .   S
    C1054  O1079     1.27239      .   S
    C1054  C1055     1.50873      .   S
    H2845  C2799     1.08338      .   S
    H375   C329      1.08338      .   S
    H3105  C3059     1.08338      .   S
    H2585  C2539     1.08338      .   S
    H570   C524      1.08338      .   S
    H180   C134      1.08338      .   S
    H2005  C1963     1.08234      .   S
    H1355  C1313     1.08234      .   S
    H1680  C1638     1.08234      .   S
    H835   C793      1.08234      .   S
    H1095  C1053     1.08234      .   S
    H2330  C2288     1.08234      .   S
    C1655  H1689     1.08287      .   S
    C1655  C1654     1.39027      .   S
    C1070  H1104     1.08338      .   S
    C1070  C1069     1.39027      .   S
    C810   H844      1.08287      .   S
    C810   C809      1.39027      .   S
    C1330  H1364     1.08289      .   S
    C1330  C1329     1.39027      .   S
    C2305  H2339     1.08289      .   S
    C2305  C2304     1.39027      .   S
    C1980  H2014     1.08338      .   S
    C1980  C1979     1.39027      .   S
    C3292  C2993     1.40603      .   S
    C3332  C588      1.40603      .   S
    C3282  C263      1.40603      .   S
    C3272  C198      1.40603      .   S
    C3262  C2473     1.40603      .   S
    C3322  C2733     1.40603      .   S
    C2799  C3334     1.40567      .   S
    C134   C3264     1.40557      .   S
    C524   C3324     1.40558      .   S
    C329   C3294     1.40567      .   S
    C2539  C3274     1.40557      .   S
    C3059  C3284     1.40558      .   S
    C2300  C2304     1.40111      .   S
    C2300  C2299     1.47969  1_545   S
    C1065  C1069     1.40062      .   S
    C1065  C1064     1.47969      .   S
    C1975  C1979     1.40062      .   S
    C1975  C1974     1.47969      .   S
    C805   C809      1.40113      .   S
    C805   C804      1.47969  1_545   S
    C1325  C1329     1.40111      .   S
    C1325  C1324     1.47969  1_455   S
    C1650  C1654     1.40113      .   S
    C1650  C1649     1.47969  1_455   S
    C591   O619      1.27040      .   S
    C591   C592      1.49256      .   S
    C201   O229      1.27083      .   S
    C201   C202      1.49198      .   S
    C266   O294      1.27101      .   S
    C266   C267      1.49193      .   S
    C2476  O2504     1.27083      .   S
    C2476  C2477     1.49198      .   S
    C2996  O3024     1.27040      .   S
    C2996  C2997     1.49256      .   S
    C2736  O2764     1.27101      .   S
    C2736  C2737     1.49193      .   S
    O1669  C1649     1.26682      .   S
    O1669  Cr3360    1.86975      .   S
    O824   C804      1.26682      .   S
    O824   Cr3360    1.86975      .   S
    O1084  C1064     1.26629      .   S
    O1084  Cr3400    1.87089      .   S
    O2319  C2299     1.26672      .   S
    O2319  Cr3400    1.87002      .   S
    O1344  C1324     1.26672      .   S
    O1344  Cr3440    1.87002      .   S
    O1994  C1974     1.26629      .   S
    O1994  Cr3440    1.87089      .   S
    H1091  C1045     1.08257      .   S
    H831   C785      1.08257      .   S
    H1676  C1630     1.08257      .   S
    H1351  C1305     1.08257      .   S
    H2001  C1955     1.08257      .   S
    H2326  C2280     1.08257      .   S
    C1313  C1315     1.41110      .   S
    C1313  C1316     1.41201      .   S
    C2288  C2290     1.41110      .   S
    C2288  C2291     1.41201      .   S
    C793   C795      1.41088      .   S
    C793   C796      1.41201      .   S
    C1638  C1640     1.41088      .   S
    C1638  C1641     1.41201      .   S
    C1963  C1965     1.41150      .   S
    C1963  C1966     1.41201      .   S
    C1053  C1055     1.41150      .   S
    C1053  C1056     1.41201      .   S
    C2290  C2294     1.41033      .   S
    C1315  C1319     1.41033      .   S
    C1640  C1644     1.41033      .   S
    C1965  C1969     1.41033      .   S
    C1055  C1059     1.41033      .   S
    C795   C799      1.41033      .   S
    C2304  H2338     1.08292      .   S
    C1654  H1688     1.08312      .   S
    C1329  H1363     1.08292      .   S
    C1979  H2013     1.08312      .   S
    C1069  H1103     1.08312      .   S
    C809   H843      1.08312      .   S
    H3041  C2995     1.08257      .   S
    H2521  C2475     1.08257      .   S
    H246   C200      1.08257      .   S
    H311   C265      1.08257      .   S
    H636   C590      1.08257      .   S
    H2781  C2735     1.08257      .   S
    C2299  O1085     1.27049      .   S
    C804   O1670     1.27044      .   S
    C1324  O1995     1.27049      .   S
    C1649  O825      1.27044      .   S
    C1974  O1345     1.27038      .   S
    C1064  O2320     1.27038      .   S
    Cr3360 O1660     1.87222      .   S
    Cr3360 O815      1.87222      .   S
    Cr3440 O1335     1.87163      .   S
    Cr3440 O1985     1.87206      .   S
    Cr3400 O2310     1.87163      .   S
    Cr3400 O1075     1.87206      .   S
    C1045  C1630     1.39819      .   S
    C1045  C1047     1.40697      .   S
    C785   C1955     1.39819      .   S
    C785   C787      1.40665      .   S
    C1305  C2280     1.39819      .   S
    C1305  C1307     1.40707      .   S
    C2280  C2282     1.40707      .   S
    C1955  C1957     1.40697      .   S
    C1630  C1632     1.40665      .   S
    C198   H244      1.08349      .   S
    C198   C199      1.39584      .   S
    C2733  H2779     1.08296      .   S
    C2733  C2734     1.39584      .   S
    C588   H634      1.08306      .   S
    C588   C589      1.39584      .   S
    C2993  H3039     1.08306      .   S
    C2993  C2994     1.39584      .   S
    C2473  H2519     1.08349      .   S
    C2473  C2474     1.39584      .   S
    C263   H309      1.08296      .   S
    C263   C264      1.39584      .   S
    O1335  C1956     1.26837      .   S
    O1660  C786      1.26808      .   S
    O2310  C1046     1.26837      .   S
    O815   C1631     1.26808      .   S
    O1075  C2281     1.26792      .   S
    O1985  C1306     1.26792      .   S
    C3284  C264      1.40558      .   S
    C3284  C3283     1.48157      .   S
    C3294  C2994     1.40567      .   S
    C3294  C3293     1.48126      .   S
    C3334  C589      1.40567      .   S
    C3334  C3333     1.48126      .   S
    C3264  C2474     1.40611      .   S
    C3264  C3263     1.48055      .   S
    C3274  C199      1.40611      .   S
    C3274  C3273     1.48055      .   S
    C3324  C2734     1.40558      .   S
    C3324  C3323     1.48157      .   S
    C200   C202      1.40707      .   S
    C200   C2670     1.39819      .   S
    C590   C592      1.40665      .   S
    C590   C2930     1.39819      .   S
    C2995  C2997     1.40665      .   S
    C2995  C655      1.39819      .   S
    C2475  C2477     1.40707      .   S
    C2475  C460      1.39819      .   S
    C2735  C2737     1.40726      .   S
    C2735  C5        1.39819      .   S
    C265   C267      1.40726      .   S
    C265   C2410     1.39819      .   S
    C267   C268      1.40821      .   S
    C2737  C2738     1.40821      .   S
    C202   C203      1.40840      .   S
    C2997  C2998     1.40850      .   S
    C592   C593      1.40850      .   S
    C2477  C2478     1.40840      .   S
    H2843  C2797     1.08337      .   S
    H178   C132      1.08295      .   S
    H373   C327      1.08337      .   S
    H3103  C3057     1.08308      .   S
    H568   C522      1.08308      .   S
    H2583  C2537     1.08295      .   S
    H836   C796      1.08341  1_545   S
    H2006  C1966     1.08218      .   S
    H1356  C1316     1.08299  1_455   S
    H1681  C1641     1.08341  1_455   S
    H1096  C1056     1.08218      .   S
    H2331  C2291     1.08299  1_545   S
    O2828  Cr3122    1.87068      .   S
    O2828  C3333     1.26804      .   S
    O2568  Cr3125    1.87068      .   S
    O2568  C3273     1.26848      .   S
    O163   Cr3122    1.87068      .   S
    O163   C3263     1.26848      .   S
    O553   Cr3128    1.87068      .   S
    O553   C3323     1.26797      .   S
    O3088  Cr3128    1.87068      .   S
    O3088  C3283     1.26797      .   S
    O358   Cr3125    1.87068      .   S
    O358   C3293     1.26804      .   S
    C1641  C1643     1.41131      .   S
    C1966  C1968     1.41161      .   S
    C796   C798      1.41131      .   S
    C2291  C2293     1.41150      .   S
    C1316  C1318     1.41150      .   S
    C1056  C1058     1.41161      .   S
    C799   H837      1.08286      .   S
    C799   C800      1.40647      .   S
    C1319  H1357     1.08264      .   S
    C1319  C1320     1.40647      .   S
    C1059  H1097     1.08224      .   S
    C1059  C1060     1.40647      .   S
    C1969  H2007     1.08224      .   S
    C1969  C1970     1.40647      .   S
    C1644  H1682     1.08286      .   S
    C1644  C1645     1.40647      .   S
    C2294  H2332     1.08264      .   S
    C2294  C2295     1.40647      .   S
    C264   H310      1.08338      .   S
    C2734  H2780     1.08338      .   S
    C199   H245      1.08338      .   S
    C2994  H3040     1.08338      .   S
    C2474  H2520     1.08338      .   S
    C589   H635      1.08338      .   S
    O1345  Cr1301    1.87184      .   S
    O825   Cr781     1.87258      .   S
    O2320  Cr2276    1.87184      .   S
    O1670  Cr1626    1.87258      .   S
    O1085  Cr1041    1.87232      .   S
    O1995  Cr1951    1.87232      .   S
    Cr3125 O2566     1.86955      .   S
    Cr3125 O356      1.86955      .   S
    Cr3122 O161      1.86955      .   S
    Cr3122 O2826     1.86955      .   S
    Cr3122 O3530     1.92487      .   S
    Cr3128 O551      1.86955      .   S
    Cr3128 O3086     1.86955      .   S
    Cr3128 O3528     1.92469      .   S
    C1047  C1046     1.49130      .   S
    C1047  C1048     1.40882      .   S
    C787   C786      1.49256      .   S
    C787   C788      1.40850      .   S
    C1957  C1956     1.49130      .   S
    C1957  C1958     1.40882      .   S
    C1307  C1306     1.49198      .   S
    C1307  C1308     1.40840      .   S
    C2282  C2281     1.49198      .   S
    C2282  C2283     1.40840      .   S
    C1632  C1631     1.49256      .   S
    C1632  C1633     1.40850      .   S
    C3323  O2763     1.26797      .   S
    C3333  O618      1.26804      .   S
    C3293  O3023     1.26804      .   S
    C3283  O293      1.26797      .   S
    C3273  O228      1.26793      .   S
    C3263  O2503     1.26793      .   S
    C2281  O2309     1.27083      .   S
    C786   O814      1.27040      .   S
    C1956  O1984     1.27072      .   S
    C1306  O1334     1.27083      .   S
    C1631  O1659     1.27040      .   S
    C1046  O1074     1.27072      .   S
    C327   C3057     1.39567      .   S
    C327   C3491     1.40880      .   S
    C132   C2537     1.39567      .   S
    C132   C3485     1.40890      .   S
    C2797  C522      1.39567      .   S
    C2797  C3499     1.40880      .   S
    C522   C3497     1.40848      .   S
    C2537  C3487     1.40890      .   S
    C3057  C3489     1.40848      .   S
    H2976  C2930     1.08257      .   S
    H2716  C2670     1.08257      .   S
    H701   C655      1.08257      .   S
    H51    C5        1.08257      .   S
    H2456  C2410     1.08257      .   S
    H506   C460      1.08257      .   S
    O551   C3496     1.26845      .   S
    O2566  C3486     1.26845      .   S
    O161   C3484     1.26845      .   S
    O356   C3490     1.26845      .   S
    O2826  C3498     1.26845      .   S
    O3086  C3488     1.26845      .   S
    C2670  C2672     1.40707      .   S
    C2410  C2412     1.40726      .   S
    C2930  C2932     1.40697      .   S
    C5     C7        1.40726      .   S
    C655   C657      1.40697      .   S
    C460   C462      1.40707      .   S
    O3449  Cr1301    1.92607      .   S
    O3449  Cr1951    1.92498      .   S
    O3369  Cr1626    1.92532      .   S
    O3369  Cr781     1.92532      .   S
    O3409  Cr2276    1.92607      .   S
    O3409  Cr1041    1.92498      .   S
    C268   H312      1.08261      .   S
    C268   C2413     1.40510      .   S
    C593   H637      1.08261      .   S
    C593   C2933     1.40510      .   S
    C2478  H2522     1.08261      .   S
    C2478  C463      1.40510      .   S
    C2738  H2782     1.08261      .   S
    C2738  C8        1.40510      .   S
    C203   H247      1.08261      .   S
    C203   C2673     1.40510      .   S
    C2998  H3042     1.08261      .   S
    C2998  C658      1.40510      .   S
    C2293  C2295     1.41009      .   S
    C2293  C2292     1.50834      .   S
    C1318  C1320     1.41009      .   S
    C1318  C1317     1.50834      .   S
    C1643  C1645     1.41009      .   S
    C1643  C1642     1.50834      .   S
    C1968  C1970     1.41009      .   S
    C1968  C1967     1.50834      .   S
    C1058  C1060     1.41009      .   S
    C1058  C1057     1.50834      .   S
    C798   C800      1.41009      .   S
    C798   C797      1.50834      .   S
    C2295  H2333     1.08243      .   S
    C800   H838      1.08263      .   S
    C1645  H1683     1.08263      .   S
    C1970  H2008     1.08230      .   S
    C1320  H1358     1.08243      .   S
    C1060  H1098     1.08230      .   S
    O814   Cr781     1.88668      .   S
    O2309  Cr2276    1.88703      .   S
    O1659  Cr1626    1.88668      .   S
    O1984  Cr1951    1.88729      .   S
    O1074  Cr1041    1.88729      .   S
    O1334  Cr1301    1.88703      .   S
    C2283  C1308     1.40510      .   S
    C2283  H2327     1.08261      .   S
    C1308  H1352     1.08261      .   S
    C1633  C1048     1.40510      .   S
    C1633  H1677     1.08261      .   S
    C1958  C788      1.40510      .   S
    C1958  H2002     1.08261      .   S
    C788   H832      1.08261      .   S
    C1048  H1092     1.08261      .   S
    C3489  C3488     1.40622      .   S
    C3489  C262      1.40848      .   S
    C3485  C3484     1.40622      .   S
    C3485  C2472     1.40836      .   S
    C3487  C3486     1.40622      .   S
    C3487  C197      1.40836      .   S
    C3499  C3498     1.40622      .   S
    C3499  C587      1.40880      .   S
    C3497  C3496     1.40622      .   S
    C3497  C2732     1.40848      .   S
    C3491  C3490     1.40622      .   S
    C3491  C2992     1.40880      .   S
    C3486  O226      1.26845      .   S
    C3488  O291      1.26845      .   S
    C3498  O616      1.26845      .   S
    C3496  O2761     1.26845      .   S
    C3490  O3021     1.26845      .   S
    C3484  O2501     1.26845      .   S
    O3023  Cr3130    1.87068      .   S
    O2763  Cr3120    1.87068      .   S
    O618   Cr3129    1.87068      .   S
    O228   Cr3123    1.87068      .   S
    O2503  Cr3127    1.87068      .   S
    O293   Cr3124    1.87068      .   S
    Cr1626 O1667     1.88990      .   S
    Cr1626 O1657     1.87172      .   S
    Cr2276 O2317     1.88990      .   S
    Cr2276 O2307     1.87206      .   S
    Cr1301 O1342     1.88990      .   S
    Cr1301 O1332     1.87206      .   S
    Cr781  O822      1.88990      .   S
    Cr781  O812      1.87172      .   S
    Cr1041 O1082     1.88990      .   S
    Cr1041 O1072     1.87187      .   S
    Cr1951 O1992     1.88990      .   S
    Cr1951 O1982     1.87187      .   S
    C2412  C2413     1.40821      .   S
    C2412  C2411     1.49193      .   S
    C462   C463      1.40840      .   S
    C462   C461      1.49198      .   S
    C7     C8        1.40821      .   S
    C7     C6        1.49193      .   S
    C2672  C2673     1.40840      .   S
    C2672  C2671     1.49198      .   S
    C2932  C2933     1.40882      .   S
    C2932  C2931     1.49130      .   S
    C657   C658      1.40882      .   S
    C657   C656      1.49130      .   S
    C8     H52       1.08261      .   S
    C2933  H2977     1.08261      .   S
    C2673  H2717     1.08261      .   S
    C658   H702      1.08261      .   S
    C2413  H2457     1.08261      .   S
    C463   H507      1.08261      .   S
    O3531  Cr3123    1.92433      .   S
    O3531  Cr3130    1.92487      .   S
    O3530  Cr3127    1.92433      .   S
    O3528  Cr3124    1.92469      .   S
    O1665  C1642     1.27469  1_455   S
    O1665  Cr3204    1.89821      .   S
    O1080  C1057     1.27469      .   S
    O1080  Cr3208    1.89821      .   S
    O1340  C1317     1.27469  1_455   S
    O1340  Cr3212    1.89821      .   S
    O2315  C2292     1.27469  1_545   S
    O2315  Cr3208    1.89821      .   S
    O1990  C1967     1.27469      .   S
    O1990  Cr3212    1.89821      .   S
    O820   C797      1.27469  1_545   S
    O820   Cr3204    1.89821      .   S
    C797   O821      1.27252      .   S
    C1317  O1341     1.27273      .   S
    C1967  O1991     1.27285      .   S
    C2292  O2316     1.27273      .   S
    C1057  O1081     1.27285      .   S
    C1642  O1666     1.27252      .   S
    O1667  C3365     1.27227      .   S
    O1992  C3445     1.27123      .   S
    O1082  C3405     1.27123      .   S
    O822   C3365     1.27227      .   S
    O1342  C3445     1.27233      .   S
    O2317  C3405     1.27233      .   S
    C587   C2732     1.39567      .   S
    C587   H633      1.08337      .   S
    C262   C2992     1.39567      .   S
    C262   H308      1.08308      .   S
    C2472  C197      1.39567      .   S
    C2472  H2518     1.08350      .   S
    C2732  H2778     1.08308      .   S
    C197   H243      1.08350      .   S
    C2992  H3038     1.08337      .   S
    O2501  Cr3127    1.86955      .   S
    O616   Cr3129    1.86955      .   S
    O291   Cr3124    1.86955      .   S
    O226   Cr3123    1.86955      .   S
    O3021  Cr3130    1.86955      .   S
    O2761  Cr3120    1.86955      .   S
    C3445  C3446     1.50353      .   S
    C3365  C3366     1.50353      .   S
    C3405  C3406     1.50353      .   S
    O2700  C656      1.26837      .   S
    O2700  Cr3340    1.87163      .   S
    O2960  C461      1.26792      .   S
    O2960  Cr3310    1.87206      .   S
    O685   C2671     1.26792      .   S
    O685   Cr3340    1.87206      .   S
    O490   C2931     1.26837      .   S
    O490   Cr3310    1.87163      .   S
    O35    C2411     1.26777      .   S
    O35    Cr3240    1.87208      .   S
    O2440  C6        1.26777      .   S
    O2440  Cr3240    1.87208      .   S
    Cr3123 O2698     1.87068      .   S
    Cr3123 O2696     1.86955      .   S
    Cr3124 O2438     1.87068      .   S
    Cr3124 O2436     1.86955      .   S
    Cr3127 O488      1.87068      .   S
    Cr3127 O486      1.86955      .   S
    Cr3129 O2958     1.87068      .   S
    Cr3129 O2956     1.86955      .   S
    Cr3120 O33       1.87068      .   S
    Cr3120 O31       1.86955      .   S
    Cr3130 O683      1.87068      .   S
    Cr3130 O681      1.86955      .   S
    C3366  C801      1.40869      .   S
    C3366  C1646     1.40869      .   S
    C3446  C1321     1.40922      .   S
    C3446  C1971     1.40868      .   S
    C3406  C2296     1.40922      .   S
    C3406  C1061     1.40868      .   S
    H1684  C1646     1.08260      .   S
    H839   C801      1.08260      .   S
    H1099  C1061     1.08260      .   S
    H2334  C2296     1.08260      .   S
    H2009  C1971     1.08260      .   S
    H1359  C1321     1.08260      .   S
    C2411  O2439     1.27101      .   S
    C461   O489      1.27083      .   S
    C6     O34       1.27101      .   S
    C2931  O2959     1.27072      .   S
    C2671  O2699     1.27083      .   S
    C656   O684      1.27072      .   S
    O812   C3361     1.26899      .   S
    O2307  C3401     1.26899      .   S
    O1657  C3361     1.26899      .   S
    O1072  C3401     1.26899      .   S
    O1332  C3441     1.26899      .   S
    O1982  C3441     1.26899      .   S
    C1321  C1322     1.40693      .   S
    C2296  C2297     1.40693      .   S
    C801   C802      1.40693      .   S
    C1061  C1062     1.40693      .   S
    C1971  C1972     1.40693      .   S
    C1646  C1647     1.40693      .   S
    O1666  Cr3229    1.88921      .   S
    O2316  Cr3233    1.88907      .   S
    O821   Cr3228    1.88921      .   S
    O1081  Cr3232    1.88931      .   S
    O1341  Cr3236    1.88907      .   S
    O1991  Cr3237    1.88931      .   S
    Cr3204 O885      1.89821      .   S
    Cr3204 O1600     1.89821      .   S
    Cr3208 O2250     1.89821      .   S
    Cr3208 O1145     1.89821      .   S
    Cr3212 O1405     1.89821      .   S
    Cr3212 O2055     1.89821      .   S
    O2958  C3313     1.26848      .   S
    O488   C3313     1.26793      .   S
    O683   C3343     1.26848      .   S
    O33    C3243     1.26797      .   S
    O2698  C3343     1.26793      .   S
    O2438  C3243     1.26797      .   S
    C802   H840      1.08308      .   S
    C802   C3368     1.41318      .   S
    C1647  H1685     1.08308      .   S
    C1647  C3368     1.41318      .   S
    C2297  H2335     1.08308      .   S
    C2297  C3408     1.41318      .   S
    C1972  H2010     1.08308      .   S
    C1972  C3448     1.41318      .   S
    C1062  H1100     1.08308      .   S
    C1062  C3408     1.41318      .   S
    C1322  H1360     1.08308      .   S
    C1322  C3448     1.41318      .   S
    C3361  C3362     1.48115      .   S
    C3401  C3402     1.48115      .   S
    C3441  C3442     1.48115      .   S
    C3243  C3244     1.48157      .   S
    C3313  C3314     1.48055      .   S
    C3343  C3344     1.48055      .   S
    C3408  C3407     1.42548      .   S
    C3368  C3367     1.42548      .   S
    C3448  C3447     1.42548      .   S
    Cr3240 O2449     1.86988      .   S
    Cr3240 O44       1.86988      .   S
    Cr3340 O694      1.87089      .   S
    Cr3340 O2709     1.87002      .   S
    Cr3310 O499      1.87002      .   S
    Cr3310 O2969     1.87089      .   S
    O489   Cr456     1.88703      .   S
    O2439  Cr2406    1.88714      .   S
    O2699  Cr2666    1.88703      .   S
    O34    Cr1       1.88714      .   S
    O2959  Cr2926    1.88729      .   S
    O684   Cr651     1.88729      .   S
    C3344  C2669     1.40611      .   S
    C3344  C654      1.40557      .   S
    C3244  C2409     1.40558      .   S
    C3244  C4        1.40558      .   S
    C3314  C459      1.40611      .   S
    C3314  C2929     1.40557      .   S
    C3447  O1343     1.27301      .   S
    C3447  O1993     1.27301      .   S
    C3407  O1083     1.27301      .   S
    C3407  O2318     1.27301      .   S
    C3367  O823      1.27301      .   S
    C3367  O1668     1.27301      .   S
    O2250  C2227     1.27469      .   S
    O1405  C1382     1.27469      .   S
    O2055  C2032     1.27469  1_455   S
    O885   C862      1.27469  1_455   S
    O1600  C1577     1.27469  1_545   S
    O1145  C1122     1.27469  1_545   S
    H2455  C2409     1.08338      .   S
    H700   C654      1.08338      .   S
    H2975  C2929     1.08338      .   S
    H2715  C2669     1.08338      .   S
    H50    C4        1.08338      .   S
    H505   C459      1.08338      .   S
    O3209  Cr3233    1.92625      .   S
    O3209  Cr3232    1.92625  1_565   S
    O3213  Cr3236    1.92625      .   S
    O3213  Cr3237    1.92625  1_655   S
    O3205  Cr3229    1.92625  1_565   S
    O3205  Cr3228    1.92625  1_655   S
    O31    C3480     1.26845      .   S
    O2436  C3480     1.26845      .   S
    O2956  C3494     1.26845      .   S
    O2696  C3500     1.26845      .   S
    O681   C3500     1.26845      .   S
    O486   C3494     1.26845      .   S
    O1343  Cr3236    1.89044      .   S
    O1993  Cr3237    1.89044  1_655   S
    O1083  Cr3232    1.89044  1_565   S
    O823   Cr3228    1.89044  1_655   S
    O2318  Cr3233    1.89044      .   S
    O1668  Cr3229    1.89044  1_565   S
    C459   C458      1.39584      .   S
    C2669  C2668     1.39584      .   S
    C2409  C2408     1.39584      .   S
    C4     C3        1.39584      .   S
    C2929  C2928     1.39584      .   S
    C654   C653      1.39584      .   S
    O499   C479      1.26672      .   S
    O694   C674      1.26629      .   S
    O2449  C2429     1.26639      .   S
    O2709  C2689     1.26672      .   S
    O44    C24       1.26639      .   S
    O2969  C2949     1.26629      .   S
    C3362  C783      1.40603      .   S
    C3362  C1628     1.40603      .   S
    C3442  C1303     1.40603      .   S
    C3442  C1953     1.40603      .   S
    C3402  C1043     1.40603      .   S
    C3402  C2278     1.40603      .   S
    C3480  C3481     1.40622      .   S
    C3494  C3495     1.40622      .   S
    C3500  C3501     1.40622      .   S
    Cr3236 O2056     1.88907      .   S
    Cr3236 O2058     1.89044      .   S
    Cr3237 O1406     1.88931      .   S
    Cr3237 O1408     1.89044  1_455   S
    Cr3233 O1146     1.88907      .   S
    Cr3233 O1148     1.89044      .   S
    Cr3232 O2251     1.88931      .   S
    Cr3232 O2253     1.89044  1_545   S
    Cr3229 O886      1.88967      .   S
    Cr3229 O888      1.89044  1_545   S
    Cr3228 O1601     1.88967      .   S
    Cr3228 O1603     1.89044  1_455   S
    C653   H699      1.08294      .   S
    C653   C3342     1.40603      .   S
    C458   H504      1.08349      .   S
    C458   C3312     1.40603      .   S
    C2928  H2974     1.08294      .   S
    C2928  C3312     1.40603      .   S
    C3     H49       1.08296      .   S
    C3     C3242     1.40603      .   S
    C2668  H2714     1.08349      .   S
    C2668  C3342     1.40603      .   S
    C2408  H2454     1.08296      .   S
    C2408  C3242     1.40603      .   S
    H1421  C1381     1.08218      .   S
    H2071  C2031     1.08299  1_455   S
    H901   C861      1.08292  1_455   S
    H2266  C2226     1.08218      .   S
    H1616  C1576     1.08292  1_545   S
    H1161  C1121     1.08299  1_545   S
    H1089  C1043     1.08294      .   S
    H1674  C1628     1.08306      .   S
    H829   C783      1.08306      .   S
    H1999  C1953     1.08294      .   S
    H2324  C2278     1.08349      .   S
    H1349  C1303     1.08349      .   S
    C3312  C3311     1.48115      .   S
    C3342  C3341     1.48115      .   S
    C3242  C3241     1.48115      .   S
    C2227  O2251     1.27285      .   S
    C2227  C2228     1.50834      .   S
    C1122  O1146     1.27273      .   S
    C1122  C1123     1.50834      .   S
    C1382  O1406     1.27285      .   S
    C1382  C1383     1.50834      .   S
    C2032  O2056     1.27273      .   S
    C2032  C2033     1.50834      .   S
    C862   O886      1.27227      .   S
    C862   C863      1.50834      .   S
    C1577  O1601     1.27227      .   S
    C1577  C1578     1.50834      .   S
    O3249  Cr1       1.92593      .   S
    O3249  Cr2406    1.92593      .   S
    O3349  Cr2666    1.92607      .   S
    O3349  Cr651     1.92498      .   S
    O3319  Cr2926    1.92498      .   S
    O3319  Cr456     1.92607      .   S
    C3241  O2437     1.26899      .   S
    C3241  O32       1.26899      .   S
    C3311  O487      1.26899      .   S
    C3311  O2957     1.26899      .   S
    C3341  O682      1.26899      .   S
    C3341  O2697     1.26899      .   S
    C1303  C1304     1.39584      .   S
    C1953  C1954     1.39584      .   S
    C1043  C1044     1.39584      .   S
    C783   C784      1.39584      .   S
    C2278  C2279     1.39584      .   S
    C1628  C1629     1.39584      .   S
    H61    C23       1.08317      .   S
    H2726  C2688     1.08281      .   S
    H516   C478      1.08281      .   S
    H2986  C2948     1.08330      .   S
    H711   C673      1.08330      .   S
    H2466  C2428     1.08317      .   S
    O682   Cr651     1.87187      .   S
    O2437  Cr2406    1.87145      .   S
    O2697  Cr2666    1.87206      .   S
    O487   Cr456     1.87206      .   S
    O2957  Cr2926    1.87187      .   S
    O32    Cr1       1.87145      .   S
    C2429  O45       1.26993      .   S
    C2429  C2430     1.47969      .   S
    C2689  O695      1.27049      .   S
    C2689  C2690     1.47969      .   S
    C479   O2970     1.27049      .   S
    C479   C480      1.47969      .   S
    C2949  O500      1.27038      .   S
    C2949  C2950     1.47969      .   S
    C24    O2450     1.26993      .   S
    C24    C25       1.47969      .   S
    C674   O2710     1.27038      .   S
    C674   C675      1.47969      .   S
    C861   C863      1.41102      .   S
    C861   C858      1.41201      .   S
    C1576  C1578     1.41102      .   S
    C1576  C1573     1.41201      .   S
    C1381  C1383     1.41161      .   S
    C1381  C1378     1.41201      .   S
    C1121  C1123     1.41150      .   S
    C1121  C1118     1.41201      .   S
    C2031  C2033     1.41150      .   S
    C2031  C2028     1.41201      .   S
    C2226  C2228     1.41161      .   S
    C2226  C2223     1.41201      .   S
    Cr2926 O2970     1.87232      .   S
    Cr2926 O2967     1.88990      .   S
    Cr1    O45       1.87307      .   S
    Cr1    O42       1.88990      .   S
    Cr2406 O2450     1.87307      .   S
    Cr2406 O2447     1.88990      .   S
    Cr2666 O2710     1.87184      .   S
    Cr2666 O2707     1.88990      .   S
    Cr456  O500      1.87184      .   S
    Cr456  O497      1.88990      .   S
    Cr651  O695      1.87232      .   S
    Cr651  O692      1.88990      .   S
    C1383  C1385     1.41009      .   S
    C2033  C2035     1.41009      .   S
    C863   C865      1.41009      .   S
    C1123  C1125     1.41009      .   S
    C2228  C2230     1.41009      .   S
    C1578  C1580     1.41009      .   S
    C3481  C2        1.40848      .   S
    C3481  C2407     1.40848      .   S
    C3495  C2927     1.40890      .   S
    C3495  C457      1.40836      .   S
    C3501  C652      1.40890      .   S
    C3501  C2667     1.40836      .   S
    C2428  C2430     1.41016      .   S
    C2428  C2431     1.40238      .   S
    C2688  C2690     1.41016      .   S
    C2688  C2691     1.40238      .   S
    C23    C25       1.41016      .   S
    C23    C26       1.40238      .   S
    C478   C480      1.41016      .   S
    C478   C481      1.40238      .   S
    C673   C675      1.41016      .   S
    C673   C676      1.40238      .   S
    C2948  C2950     1.41016      .   S
    C2948  C2951     1.40238      .   S
    H2973  C2927     1.08295      .   S
    H503   C457      1.08350      .   S
    H2713  C2667     1.08350      .   S
    H698   C652      1.08295      .   S
    H48    C2        1.08308      .   S
    H2453  C2407     1.08308      .   S
    C2430  C2434     1.40076      .   S
    C480   C484      1.40111      .   S
    C675   C679      1.40062      .   S
    C25    C29       1.40076      .   S
    C2690  C2694     1.40111      .   S
    C2950  C2954     1.40062      .   S
    H900   C858      1.08234      .   S
    H1615  C1573     1.08234      .   S
    H2070  C2028     1.08234      .   S
    H1160  C1118     1.08234      .   S
    H1420  C1378     1.08234      .   S
    H2265  C2223     1.08234      .   S
    C1304  H1350     1.08338      .   S
    C1304  C3444     1.40611      .   S
    C1954  H2000     1.08338      .   S
    C1954  C3444     1.40557      .   S
    C1044  H1090     1.08338      .   S
    C1044  C3404     1.40557      .   S
    C2279  H2325     1.08338      .   S
    C2279  C3404     1.40611      .   S
    C784   H830      1.08338      .   S
    C784   C3364     1.40567      .   S
    C1629  H1675     1.08338      .   S
    C1629  C3364     1.40567      .   S
    C1573  C1575     1.41116      .   S
    C1118  C1120     1.41110      .   S
    C2223  C2225     1.41150      .   S
    C2028  C2030     1.41110      .   S
    C1378  C1380     1.41150      .   S
    C858   C860      1.41116      .   S
    H712   C676      1.08314      .   S
    H517   C481      1.08334      .   S
    H2467  C2431     1.08273      .   S
    H62    C26       1.08273      .   S
    H2727  C2691     1.08334      .   S
    H2987  C2951     1.08314      .   S
    C652   C2602     1.39567      .   S
    C2     C2342     1.39567      .   S
    C2667  C717      1.39567      .   S
    C2407  C67       1.39567      .   S
    C2927  C392      1.39567      .   S
    C457   C2862     1.39567      .   S
    O2058  C3457     1.27301      .   S
    O1603  C3377     1.27301      .   S
    O1148  C3417     1.27301      .   S
    O888   C3377     1.27301      .   S
    O2253  C3417     1.27301      .   S
    O1408  C3457     1.27301      .   S
    C2431  C2433     1.40426      .   S
    C2951  C2953     1.40426      .   S
    C2691  C2693     1.40426      .   S
    C676   C678      1.40426      .   S
    C26    C28       1.40426      .   S
    C481   C483      1.40426      .   S
    C1125  H1163     1.08243      .   S
    C1125  C1124     1.40647      .   S
    C2035  H2073     1.08243      .   S
    C2035  C2034     1.40647      .   S
    C1385  H1423     1.08230      .   S
    C1385  C1384     1.40647      .   S
    C1580  H1618     1.08289      .   S
    C1580  C1579     1.40647      .   S
    C865   H903      1.08289      .   S
    C865   C864      1.40647      .   S
    C2230  H2268     1.08230      .   S
    C2230  C2229     1.40647      .   S
    C3364  C3363     1.48126      .   S
    C3444  C3443     1.48055      .   S
    C3404  C3403     1.48055      .   S
    C2434  H2468     1.08353      .   S
    C2434  C2435     1.39027      .   S
    C484   H518      1.08292      .   S
    C484   C485      1.39027      .   S
    C679   H713      1.08312      .   S
    C679   C680      1.39027      .   S
    C2694  H2728     1.08292      .   S
    C2694  C2695     1.39027      .   S
    C2954  H2988     1.08312      .   S
    C2954  C2955     1.39027      .   S
    C29    H63       1.08353      .   S
    C29    C30       1.39027      .   S
    C3457  C3458     1.42548      .   S
    C3417  C3418     1.42548      .   S
    C3377  C3378     1.42548      .   S
    C2225  C2229     1.41033      .   S
    C2225  C2224     1.50873      .   S
    C860   C864      1.41033      .   S
    C860   C859      1.50873      .   S
    C1380  C1384     1.41033      .   S
    C1380  C1379     1.50873      .   S
    C2030  C2034     1.41033      .   S
    C2030  C2029     1.50873      .   S
    C1120  C1124     1.41033      .   S
    C1120  C1119     1.50873      .   S
    C1575  C1579     1.41033      .   S
    C1575  C1574     1.50873      .   S
    O692   C3345     1.27123      .   S
    O2447  C3245     1.27177      .   S
    O497   C3315     1.27233      .   S
    O42    C3245     1.27177      .   S
    O2967  C3315     1.27123      .   S
    O2707  C3345     1.27233      .   S
    C2433  C2435     1.40817      .   S
    C2433  C1392     1.48129      .   S
    C28    C30       1.40817      .   S
    C28    C2237     1.48129      .   S
    C678   C680      1.40860      .   S
    C678   C2042     1.48181      .   S
    C2693  C2695     1.40878      .   S
    C2693  C872      1.48153      .   S
    C2953  C2955     1.40860      .   S
    C2953  C1132     1.48181      .   S
    C483   C485      1.40878      .   S
    C483   C1587     1.48153      .   S
    C1579  H1617     1.08261      .   S
    C864   H902      1.08261      .   S
    C1124  H1162     1.08264      .   S
    C2034  H2072     1.08264      .   S
    C2229  H2267     1.08224      .   S
    C1384  H1422     1.08224      .   S
    C680   H714      1.08338      .   S
    C2435  H2469     1.08327      .   S
    C2695  H2729     1.08289      .   S
    C30    H64       1.08327      .   S
    C2955  H2989     1.08338      .   S
    C485   H519      1.08289      .   S
    C2862  H2908     1.08350      .   S
    C2862  C3493     1.40836      .   S
    C392   H438      1.08295      .   S
    C392   C3493     1.40890      .   S
    C2342  H2388     1.08337      .   S
    C2342  C3483     1.40880      .   S
    C67    H113      1.08337      .   S
    C67    C3483     1.40880      .   S
    C2602  H2648     1.08295      .   S
    C2602  C3503     1.40890      .   S
    C717   H763      1.08350      .   S
    C717   C3503     1.40836      .   S
    O1143  C1119     1.27495      .   S
    O1143  Cr1105    1.90167      .   S
    O2053  C2029     1.27495      .   S
    O2053  Cr2015    1.90167      .   S
    O883   C859      1.27495      .   S
    O883   Cr845     1.90167      .   S
    O1598  C1574     1.27495      .   S
    O1598  Cr1560    1.90167      .   S
    O2248  C2224     1.27495      .   S
    O2248  Cr2210    1.90167      .   S
    O1403  C1379     1.27495      .   S
    O1403  Cr1365    1.90167      .   S
    C3363  O813      1.26804      .   S
    C3363  O1658     1.26804      .   S
    C3403  O2308     1.26793      .   S
    C3403  O1073     1.26848      .   S
    C3443  O1333     1.26793      .   S
    C3443  O1983     1.26848      .   S
    C3245  C3246     1.50353      .   S
    C3315  C3316     1.50353      .   S
    C3345  C3346     1.50353      .   S
    O2256  C2237     1.27271      .   S
    O2256  Cr2210    1.89273      .   S
    O1606  C1587     1.27213      .   S
    O1606  Cr1560    1.89273      .   S
    O1151  C1132     1.27224      .   S
    O1151  Cr1105    1.89273      .   S
    O2061  C2042     1.27224      .   S
    O2061  Cr2015    1.89273      .   S
    O891   C872      1.27213      .   S
    O891   Cr845     1.89273      .   S
    O1411  C1392     1.27271      .   S
    O1411  Cr1365    1.89273      .   S
    C3493  C3492     1.40622      .   S
    C3503  C3502     1.40622      .   S
    C3483  C3482     1.40622      .   S
    C1574  O1599     1.27276      .   S
    C859   O884      1.27276      .   S
    C1119  O1144     1.27276      .   S
    C1379  O1404     1.27239      .   S
    C2029  O2054     1.27276      .   S
    C2224  O2249     1.27239      .   S
    C1587  O2972     1.26278      .   S
    C1392  O47       1.26278      .   S
    C2042  O2712     1.26278      .   S
    C872   O697      1.26278      .   S
    C1132  O502      1.26278      .   S
    C2237  O2452     1.26278      .   S
    H2979  C2937     1.08252      .   S
    H2719  C2677     1.08252      .   S
    H704   C662      1.08252      .   S
    H509   C467      1.08252      .   S
    H54    C12       1.08252      .   S
    H2459  C2417     1.08252      .   S
    H2068  C2024     1.08272      .   S
    H898   C854      1.08286      .   S
    H1158  C1114     1.08272      .   S
    H2263  C2219     1.08302      .   S
    H1418  C1374     1.08302      .   S
    H1613  C1569     1.08286      .   S
    O1333  Cr3140    1.87068      .   S
    O2308  Cr3140    1.87068      .   S
    O813   Cr3132    1.87068      .   S
    O1073  Cr3136    1.87068      .   S
    O1983  Cr3132    1.87068      .   S
    O1658  Cr3136    1.87068      .   S
    C3418  C2232     1.41318      .   S
    C3418  C1127     1.41318      .   S
    C3458  C1387     1.41318      .   S
    C3458  C2037     1.41318      .   S
    C3378  C867      1.41318      .   S
    C3378  C1582     1.41318      .   S
    H1165  C1127     1.08308      .   S
    H2075  C2037     1.08308      .   S
    H905   C867      1.08308      .   S
    H1620  C1582     1.08308      .   S
    H2270  C2232     1.08308      .   S
    H1425  C1387     1.08308      .   S
    Cr2210 O2246     1.89409      .   S
    Cr2210 O2247     1.89948      .   S
    Cr2210 O3189     1.93298      .   S
    Cr1105 O1141     1.89409      .   S
    Cr1105 O1142     1.89929      .   S
    Cr2015 O2051     1.89409      .   S
    Cr2015 O2052     1.89929      .   S
    Cr1560 O1596     1.89409      .   S
    Cr1560 O1597     1.89988      .   S
    Cr1365 O1401     1.89409      .   S
    Cr1365 O1402     1.89948      .   S
    Cr1365 O3145     1.93298      .   S
    Cr845  O881      1.89409      .   S
    Cr845  O882      1.89988      .   S
    O697   Cr3164    1.84888      .   S
    O502   Cr3158    1.84852      .   S
    O47    Cr3144    1.84892      .   S
    O2972  Cr3168    1.84888      .   S
    O2452  Cr3188    1.84892      .   S
    O2712  Cr3182    1.84852      .   S
    O2054  Cr3182    1.88832      .   S
    O1144  Cr3158    1.88832      .   S
    O1404  Cr3144    1.88869      .   S
    O1599  Cr3168    1.88873      .   S
    O2249  Cr3188    1.88869      .   S
    O884   Cr3164    1.88873      .   S
    C467   C2937     1.41076      .   S
    C467   C466      1.41173      .   S
    C12    C2417     1.41076      .   S
    C12    C11       1.41158      .   S
    C2937  C2936     1.41140      .   S
    C2677  C662      1.41076      .   S
    C2677  C2676     1.41173      .   S
    C2417  C2416     1.41158      .   S
    C662   C661      1.41140      .   S
    C2219  C1114     1.40950      .   S
    C2219  C2221     1.41067      .   S
    C2024  C1374     1.40950      .   S
    C2024  C2026     1.41100      .   S
    C1374  C1376     1.41067      .   S
    C1114  C1116     1.41100      .   S
    C1569  C854      1.40950      .   S
    C1569  C1571     1.41084      .   S
    C854   C856      1.41084      .   S
    C1387  C1386     1.40693      .   S
    C2232  C2231     1.40693      .   S
    C2037  C2036     1.40693      .   S
    C1127  C1126     1.40693      .   S
    C867   C866      1.40693      .   S
    C1582  C1581     1.40693      .   S
    C3482  O96       1.26845      .   S
    C3482  O2371     1.26845      .   S
    C3492  O2891     1.26845      .   S
    C3492  O421      1.26845      .   S
    C3502  O746      1.26845      .   S
    C3502  O2631     1.26845      .   S
    O1141  C1115     1.27399      .   S
    O1596  C1570     1.27399      .   S
    O2246  C2220     1.27399      .   S
    O2051  C2025     1.27399      .   S
    O881   C855      1.27399      .   S
    O1401  C1375     1.27399      .   S
    O1597  C2935     1.27492      .   S
    O2247  C2415     1.27509      .   S
    O2052  C2675     1.27522      .   S
    O882   C660      1.27492      .   S
    O1402  C10       1.27509      .   S
    O1142  C465      1.27522      .   S
    C3316  C2946     1.40868      .   S
    C3316  C476      1.40922      .   S
    C3246  C21       1.40896      .   S
    C3246  C2426     1.40896      .   S
    C3346  C2686     1.40922      .   S
    C3346  C671      1.40868      .   S
    H514   C476      1.08260      .   S
    H2984  C2946     1.08260      .   S
    H2464  C2426     1.08260      .   S
    H2724  C2686     1.08260      .   S
    H709   C671      1.08260      .   S
    H59    C21       1.08260      .   S
    O746   Cr3131    1.86955      .   S
    O96    Cr3121    1.86955      .   S
    O2371  Cr3126    1.86955      .   S
    O2891  Cr3131    1.86955      .   S
    O421   Cr3126    1.86955      .   S
    O2631  Cr3121    1.86955      .   S
    O3532  Cr3136    1.92487      .   S
    O3532  Cr3140    1.92433      .   S
    Cr3132 O1981     1.86955      .   S
    Cr3132 O811      1.86955      .   S
    Cr3136 O1071     1.86955      .   S
    Cr3136 O1656     1.86955      .   S
    Cr3140 O2306     1.86955      .   S
    Cr3140 O1331     1.86955      .   S
    C21    C22       1.40693      .   S
    C2686  C2687     1.40693      .   S
    C2426  C2427     1.40693      .   S
    C671   C672      1.40693      .   S
    C2946  C2947     1.40693      .   S
    C476   C477      1.40693      .   S
    C466   C465      1.51070      .   S
    C466   C464      1.41100      .   S
    C661   C660      1.51132      .   S
    C661   C659      1.41067      .   S
    C2936  C2935     1.51132      .   S
    C2936  C2934     1.41067      .   S
    C2676  C2675     1.51070      .   S
    C2676  C2674     1.41100      .   S
    C11    C10       1.51096      .   S
    C11    C9        1.41084      .   S
    C2416  C2415     1.51096      .   S
    C2416  C2414     1.41084      .   S
    C855   C856      1.51096  1_655   S
    C855   O687      1.27509      .   S
    C1570  C1571     1.51096  1_565   S
    C1570  O2962     1.27509      .   S
    C1375  C1376     1.51132      .   S
    C1375  O37       1.27492      .   S
    C2220  C2221     1.51132      .   S
    C2220  O2442     1.27492      .   S
    C1115  C1116     1.51070  1_565   S
    C1115  O492      1.27522      .   S
    C2025  C2026     1.51070  1_655   S
    C2025  O2702     1.27522      .   S
    Cr3188 O3189     1.92102      .   S
    Cr3188 O2444     1.88873      .   S
    Cr3188 O2257     1.84888      .   S
    Cr3168 O3169     1.92102      .   S
    Cr3168 O2964     1.88869      .   S
    Cr3168 O1607     1.84892      .   S
    O3183  Cr3182    1.92102      .   S
    O3183  Cr2665    1.93298      .   S
    O3169  Cr2925    1.93298      .   S
    Cr3144 O3145     1.92102      .   S
    Cr3144 O39       1.88873      .   S
    Cr3144 O1412     1.84888      .   S
    Cr3158 O3159     1.92102      .   S
    Cr3158 O494      1.88832      .   S
    Cr3158 O1152     1.84852      .   S
    O3159  Cr455     1.93298      .   S
    Cr3182 O2704     1.88832      .   S
    Cr3182 O2062     1.84852      .   S
    O3165  Cr3164    1.92102      .   S
    O3165  Cr650     1.93298      .   S
    Cr3164 O689      1.88869      .   S
    Cr3164 O892      1.84892      .   S
    C2935  O2961     1.27399      .   S
    C2415  O2441     1.27399      .   S
    C660   O686      1.27399      .   S
    C2675  O2701     1.27399      .   S
    C10    O36       1.27399      .   S
    C465   O491      1.27399      .   S
    C2026  C2027     1.41173      .   S
    C2221  C2222     1.41140      .   S
    C1376  C1377     1.41140      .   S
    C1571  C1572     1.41158      .   S
    C856   C857      1.41158      .   S
    C1116  C1117     1.41173      .   S
    C1126  H1164     1.08260      .   S
    C1126  C3416     1.40922      .   S
    C1386  H1424     1.08260      .   S
    C1386  C3456     1.40868      .   S
    C866   H904      1.08260      .   S
    C866   C3376     1.40896      .   S
    C1581  H1619     1.08260      .   S
    C1581  C3376     1.40896      .   S
    C2231  H2269     1.08260      .   S
    C2231  C3416     1.40868      .   S
    C2036  H2074     1.08260      .   S
    C2036  C3456     1.40922      .   S
    Cr3131 O3529     1.92433      .   S
    Cr3131 O748      1.87068      .   S
    Cr3131 O2893     1.87068      .   S
    Cr3126 O2373     1.87068      .   S
    Cr3126 O423      1.87068      .   S
    Cr3121 O3529     1.92487      .   S
    Cr3121 O98       1.87068      .   S
    Cr3121 O2633     1.87068      .   S
    O1071  C3512     1.26845      .   S
    O2306  C3512     1.26845      .   S
    O1981  C3520     1.26845      .   S
    O1331  C3520     1.26845      .   S
    O1656  C3504     1.26845      .   S
    O811   C3504     1.26845      .   S
    C3376  C3375     1.50353      .   S
    C3456  C3455     1.50353      .   S
    C3416  C3415     1.50353      .   S
    O492   Cr455     1.89929      .   S
    O687   Cr650     1.89948      .   S
    O2962  Cr2925    1.89948      .   S
    O37    Cr0       1.89988      .   S
    O2702  Cr2665    1.89929      .   S
    O2442  Cr2405    1.89988      .   S
    O2961  Cr2925    1.89409      .   S
    O36    Cr0       1.89409      .   S
    O2441  Cr2405    1.89409      .   S
    O686   Cr650     1.89409      .   S
    O491   Cr455     1.89409      .   S
    O2701  Cr2665    1.89409      .   S
    C3504  C3505     1.40622      .   S
    C3512  C3513     1.40622      .   S
    C3520  C3521     1.40622      .   S
    C477   H515      1.08308      .   S
    C477   C3318     1.41318      .   S
    C2687  H2725     1.08308      .   S
    C2687  C3348     1.41318      .   S
    C2947  H2985     1.08308      .   S
    C2947  C3318     1.41318      .   S
    C22    H60       1.08308      .   S
    C22    C3248     1.41318      .   S
    C2427  H2465     1.08308      .   S
    C2427  C3248     1.41318      .   S
    C672   H710      1.08308      .   S
    C672   C3348     1.41318      .   S
    C2674  C659      1.40950      .   S
    C2674  H2718     1.08272      .   S
    C464   C2934     1.40950      .   S
    C464   H508      1.08272      .   S
    C2414  C9        1.40950      .   S
    C2414  H2458     1.08286      .   S
    C9     H53       1.08286      .   S
    C2934  H2978     1.08302      .   S
    C659   H703      1.08302      .   S
    C857   C1572     1.41076      .   S
    C857   H899      1.08252      .   S
    C1572  H1614     1.08252      .   S
    C1117  C2222     1.41076      .   S
    C1117  H1159     1.08252      .   S
    C1377  C2027     1.41076      .   S
    C1377  H1419     1.08252      .   S
    C2222  H2264     1.08252      .   S
    C2027  H2069     1.08252      .   S
    O689   C664      1.27239      .   S
    O39    C14       1.27276      .   S
    O2444  C2419     1.27276      .   S
    O2704  C2679     1.27276      .   S
    O2964  C2939     1.27239      .   S
    O494   C469      1.27276      .   S
    O1152  C482      1.26278      .   S
    O2257  C2432     1.26278      .   S
    O2062  C2692     1.26278      .   S
    O1412  C27       1.26278      .   S
    O892   C677      1.26278      .   S
    O1607  C2952     1.26278      .   S
    Cr2665 O2711     1.89273      .   S
    Cr2665 O2703     1.90167      .   S
    Cr2405 O2451     1.89273      .   S
    Cr2405 O2443     1.90167      .   S
    Cr0    O46       1.89273      .   S
    Cr0    O38       1.90167      .   S
    Cr650  O696      1.89273      .   S
    Cr650  O688      1.90167      .   S
    Cr455  O501      1.89273      .   S
    Cr455  O493      1.90167      .   S
    Cr2925 O2971     1.89273      .   S
    Cr2925 O2963     1.90167      .   S
    C3248  C3247     1.42548      .   S
    C3318  C3317     1.42548      .   S
    C3348  C3347     1.42548      .   S
    O2373  C3253     1.26804      .   S
    O98    C3253     1.26804      .   S
    O2633  C3353     1.26848      .   S
    O748   C3353     1.26793      .   S
    O423   C3303     1.26848      .   S
    O2893  C3303     1.26793      .   S
    H707   C669      1.08224      .   S
    H2462  C2424     1.08261      .   S
    H57    C19       1.08261      .   S
    H2722  C2684     1.08264      .   S
    H2982  C2944     1.08224      .   S
    H512   C474      1.08264      .   S
    C2432  O2451     1.27213      .   S
    C2432  C1133     1.48153      .   S
    C27    O46       1.27213      .   S
    C27    C2043     1.48153      .   S
    C677   O696      1.27271      .   S
    C677   C1588     1.48129      .   S
    C2952  O2971     1.27271      .   S
    C2952  C873      1.48129      .   S
    C2692  O2711     1.27224      .   S
    C2692  C1393     1.48181      .   S
    C482   O501      1.27224      .   S
    C482   C2238     1.48181      .   S
    C664   O688      1.27495      .   S
    C664   C665      1.50873      .   S
    C2419  O2443     1.27495      .   S
    C2419  C2420     1.50873      .   S
    C469   O493      1.27495      .   S
    C469   C470      1.50873      .   S
    C14    O38       1.27495      .   S
    C14    C15       1.50873      .   S
    C2679  O2703     1.27495      .   S
    C2679  C2680     1.50873      .   S
    C2939  O2963     1.27495      .   S
    C2939  C2940     1.50873      .   S
    H1429  C1395     1.08338      .   S
    H1624  C1590     1.08327      .   S
    H2274  C2240     1.08338      .   S
    H909   C875      1.08327      .   S
    H1169  C1135     1.08289      .   S
    H2079  C2045     1.08289      .   S
    C3521  C1302     1.40836      .   S
    C3521  C1952     1.40890      .   S
    C3513  C2277     1.40836      .   S
    C3513  C1042     1.40890      .   S
    C3505  C782      1.40880      .   S
    C3505  C1627     1.40880      .   S
    C3375  O887      1.27177      .   S
    C3375  O1602     1.27177      .   S
    C3415  O2252     1.27123      .   S
    C3415  O1147     1.27233      .   S
    C3455  O1407     1.27123      .   S
    C3455  O2057     1.27233      .   S
    H2323  C2277     1.08350      .   S
    H1673  C1627     1.08337      .   S
    H1088  C1042     1.08295      .   S
    H1998  C1952     1.08295      .   S
    H1348  C1302     1.08350      .   S
    H828   C782      1.08337      .   S
    C3253  C3254     1.48126      .   S
    C3303  C3304     1.48055      .   S
    C3353  C3354     1.48055      .   S
    C2277  C1107     1.39567      .   S
    C782   C1562     1.39567      .   S
    C1302  C2017     1.39567      .   S
    C1952  C1367     1.39567      .   S
    C1042  C2212     1.39567      .   S
    C1627  C847      1.39567      .   S
    C1395  C1393     1.40860      .   S
    C1395  C1394     1.39027      .   S
    C2045  C2043     1.40878      .   S
    C2045  C2044     1.39027      .   S
    C875   C873      1.40817      .   S
    C875   C874      1.39027      .   S
    C1590  C1588     1.40817      .   S
    C1590  C1589     1.39027      .   S
    C1135  C1133     1.40878      .   S
    C1135  C1134     1.39027      .   S
    C2240  C2238     1.40860      .   S
    C2240  C2239     1.39027      .   S
    C19    C15       1.41033      .   S
    C19    C20       1.40647      .   S
    C669   C665      1.41033      .   S
    C669   C670      1.40647      .   S
    C2424  C2420     1.41033      .   S
    C2424  C2425     1.40647      .   S
    C474   C470      1.41033      .   S
    C474   C475      1.40647      .   S
    C2944  C2940     1.41033      .   S
    C2944  C2945     1.40647      .   S
    C2684  C2680     1.41033      .   S
    C2684  C2685     1.40647      .   S
    C1393  C1391     1.40426      .   S
    C873   C871      1.40426      .   S
    C2238  C2236     1.40426      .   S
    C1588  C1586     1.40426      .   S
    C1133  C1131     1.40426      .   S
    C2043  C2041     1.40426      .   S
    O2252  Cr2211    1.88990      .   S
    O1147  Cr1106    1.88990      .   S
    O887   Cr846     1.88990      .   S
    O1407  Cr1366    1.88990      .   S
    O1602  Cr1561    1.88990      .   S
    O2057  Cr2016    1.88990      .   S
    C2940  C2938     1.41150      .   S
    C15    C13       1.41116      .   S
    C665   C663      1.41150      .   S
    C2420  C2418     1.41116      .   S
    C470   C468      1.41110      .   S
    C2680  C2678     1.41110      .   S
    C3317  O498      1.27301      .   S
    C3317  O2968     1.27301      .   S
    C3247  O2448     1.27301      .   S
    C3247  O43       1.27301      .   S
    C3347  O693      1.27301      .   S
    C3347  O2708     1.27301      .   S
    H908   C874      1.08353      .   S
    H1428  C1394     1.08312      .   S
    H2078  C2044     1.08292      .   S
    H1623  C1589     1.08353      .   S
    H1168  C1134     1.08292      .   S
    H2273  C2239     1.08312      .   S
    H2463  C2425     1.08289      .   S
    H2983  C2945     1.08230      .   S
    H513   C475      1.08243      .   S
    H58    C20       1.08289      .   S
    H2723  C2685     1.08243      .   S
    H708   C670      1.08230      .   S
    C1134  C1130     1.40111      .   S
    C2239  C2235     1.40062      .   S
    C1589  C1585     1.40076      .   S
    C2044  C2040     1.40111      .   S
    C874   C870      1.40076      .   S
    C1394  C1390     1.40062      .   S
    C3354  C719      1.40611      .   S
    C3354  C2604     1.40557      .   S
    C3254  C2344     1.40567      .   S
    C3254  C69       1.40567      .   S
    C3304  C394      1.40557      .   S
    C3304  C2864     1.40611      .   S
    H765   C719      1.08338      .   S
    H2390  C2344     1.08338      .   S
    H440   C394      1.08338      .   S
    H2910  C2864     1.08338      .   S
    H2650  C2604     1.08338      .   S
    H115   C69       1.08338      .   S
    C670   C668      1.41009      .   S
    C2945  C2943     1.41009      .   S
    C2425  C2423     1.41009      .   S
    C2685  C2683     1.41009      .   S
    C475   C473      1.41009      .   S
    C20    C18       1.41009      .   S
    C1391  H1427     1.08314      .   S
    C1391  C1388     1.40238      .   S
    C1131  H1167     1.08334      .   S
    C1131  C1128     1.40238      .   S
    C1586  H1622     1.08273      .   S
    C1586  C1583     1.40238      .   S
    C2041  H2077     1.08334      .   S
    C2041  C2038     1.40238      .   S
    C871   H907      1.08273      .   S
    C871   C868      1.40238      .   S
    C2236  H2272     1.08314      .   S
    C2236  C2233     1.40238      .   S
    O498   Cr3223    1.89044      .   S
    O693   Cr3226    1.89044      .   S
    O2968  Cr3222    1.89044      .   S
    O2448  Cr3217    1.89044      .   S
    O43    Cr3216    1.89044      .   S
    O2708  Cr3227    1.89044      .   S
    C1367  H1413     1.08295      .   S
    C1367  C3523     1.40890      .   S
    C1107  H1153     1.08350      .   S
    C1107  C3515     1.40836      .   S
    C2212  H2258     1.08295      .   S
    C2212  C3515     1.40890      .   S
    C847   H893      1.08308      .   S
    C847   C3507     1.40848      .   S
    C2017  H2063     1.08350      .   S
    C2017  C3523     1.40836      .   S
    C1562  H1608     1.08308      .   S
    C1562  C3507     1.40848      .   S
    C663   H705      1.08234      .   S
    C663   C666      1.41201      .   S
    C2938  H2980     1.08234      .   S
    C2938  C2941     1.41201      .   S
    C2678  H2720     1.08234      .   S
    C2678  C2681     1.41201      .   S
    C13    H55       1.08234      .   S
    C13    C16       1.41201      .   S
    C2418  H2460     1.08234      .   S
    C2418  C2421     1.41201      .   S
    C468   H510      1.08234      .   S
    C468   C471      1.41201      .   S
    C394   C393      1.39584      .   S
    C719   C718      1.39584      .   S
    C2344  C2343     1.39584      .   S
    C2864  C2863     1.39584      .   S
    C2604  C2603     1.39584      .   S
    C69    C68       1.39584      .   S
    C870   C868      1.41016      .   S
    C870   C869      1.47969  1_455   S
    C1390  C1388     1.41016      .   S
    C1390  C1389     1.47969      .   S
    C1130  C1128     1.41016      .   S
    C1130  C1129     1.47969  1_545   S
    C2040  C2038     1.41016      .   S
    C2040  C2039     1.47969  1_455   S
    C2235  C2233     1.41016      .   S
    C2235  C2234     1.47969      .   S
    C1585  C1583     1.41016      .   S
    C1585  C1584     1.47969  1_545   S
    O1150  Cr1106    1.87184      .   S
    O1150  C2234     1.27038      .   S
    O1605  Cr1561    1.87307      .   S
    O1605  C869      1.26993      .   S
    O2060  Cr2016    1.87184      .   S
    O2060  C1389     1.27038      .   S
    O890   Cr846     1.87307      .   S
    O890   C1584     1.26993      .   S
    O1410  Cr1366    1.87232      .   S
    O1410  C2039     1.27049      .   S
    O2255  Cr2211    1.87232      .   S
    O2255  C1129     1.27049      .   S
    C1583  H1621     1.08317  1_545   S
    C2233  H2271     1.08330      .   S
    C2038  H2076     1.08281  1_455   S
    C1388  H1426     1.08330      .   S
    C868   H906      1.08317  1_455   S
    C1128  H1166     1.08281  1_545   S
    C3515  C3514     1.40622      .   S
    C3507  C3506     1.40622      .   S
    C3523  C3522     1.40622      .   S
    C2683  C2681     1.41150      .   S
    C2683  C2682     1.50834      .   S
    C2943  C2941     1.41161      .   S
    C2943  C2942     1.50834      .   S
    C2423  C2421     1.41102      .   S
    C2423  C2422     1.50834      .   S
    C18    C16       1.41102      .   S
    C18    C17       1.50834      .   S
    C473   C471      1.41150      .   S
    C473   C472      1.50834      .   S
    C668   C666      1.41161      .   S
    C668   C667      1.50834      .   S
    Cr2211 O2242     1.87187      .   S
    Cr2211 O3419     1.92498      .   S
    Cr2211 O2244     1.88729      .   S
    Cr2016 O2047     1.87206      .   S
    Cr2016 O3459     1.92607      .   S
    Cr2016 O2049     1.88703      .   S
    Cr1366 O1397     1.87187      .   S
    Cr1366 O3459     1.92498      .   S
    Cr1366 O1399     1.88729      .   S
    Cr1106 O1137     1.87206      .   S
    Cr1106 O3419     1.92607      .   S
    Cr1106 O1139     1.88703      .   S
    Cr1561 O1592     1.87145      .   S
    Cr1561 O3379     1.92593      .   S
    Cr1561 O1594     1.88714      .   S
    Cr846  O877      1.87145      .   S
    Cr846  O3379     1.92593      .   S
    Cr846  O879      1.88714      .   S
    C2941  H2981     1.08218      .   S
    C16    H56       1.08292      .   S
    C666   H706      1.08218      .   S
    C2421  H2461     1.08292      .   S
    C2681  H2721     1.08299      .   S
    C471   H511      1.08299      .   S
    C869   O889      1.26639      .   S
    C1389  O1409     1.26629      .   S
    C1129  O1149     1.26672      .   S
    C1584  O1604     1.26639      .   S
    C2234  O2254     1.26629      .   S
    C2039  O2059     1.26672      .   S
    O1592  C3371     1.26899      .   S
    O877   C3371     1.26899      .   S
    O2242  C3411     1.26899      .   S
    O2047  C3451     1.26899      .   S
    O1137  C3411     1.26899      .   S
    O1397  C3451     1.26899      .   S
    C68    H114      1.08306      .   S
    C68    C3252     1.40603      .   S
    C2603  H2649     1.08294      .   S
    C2603  C3352     1.40603      .   S
    C393   H439      1.08294      .   S
    C393   C3302     1.40603      .   S
    C718   H764      1.08349      .   S
    C718   C3352     1.40603      .   S
    C2343  H2389     1.08306      .   S
    C2343  C3252     1.40603      .   S
    C2863  H2909     1.08349      .   S
    C2863  C3302     1.40603      .   S
    C3451  C3452     1.48115      .   S
    C3411  C3412     1.48115      .   S
    C3371  C3372     1.48115      .   S
    O2446  C2422     1.27227      .   S
    O2446  Cr3217    1.88967      .   S
    O496   C472      1.27273      .   S
    O496   Cr3223    1.88907      .   S
    O41    C17       1.27227      .   S
    O41    Cr3216    1.88967      .   S
    O2706  C2682     1.27273      .   S
    O2706  Cr3227    1.88907      .   S
    O2966  C2942     1.27285      .   S
    O2966  Cr3222    1.88931      .   S
    O691   C667      1.27285      .   S
    O691   Cr3226    1.88931      .   S
    C2942  O2965     1.27469      .   S
    C472   O495      1.27469      .   S
    C17    O40       1.27469      .   S
    C2682  O2705     1.27469      .   S
    C667   O690      1.27469      .   S
    C2422  O2445     1.27469      .   S
    C3452  C2018     1.40603      .   S
    C3452  C1368     1.40603      .   S
    C3412  C2213     1.40603      .   S
    C3412  C1108     1.40603      .   S
    C3372  C1563     1.40603      .   S
    C3372  C848      1.40603      .   S
    H1154  C1108     1.08349      .   S
    H1414  C1368     1.08294      .   S
    H2064  C2018     1.08349      .   S
    H1609  C1563     1.08296      .   S
    H2259  C2213     1.08294      .   S
    H894   C848      1.08296      .   S
    C2018  C2019     1.39584      .   S
    C1563  C1564     1.39584      .   S
    C1368  C1369     1.39584      .   S
    C2213  C2214     1.39584      .   S
    C1108  C1109     1.39584      .   S
    C848   C849      1.39584      .   S
    Cr3226 O2643     1.89044      .   S
    Cr3226 O3203     1.92625      .   S
    Cr3226 O2641     1.88931      .   S
    Cr3217 O108      1.89044      .   S
    Cr3217 O3193     1.92625      .   S
    Cr3217 O106      1.88921      .   S
    Cr3227 O758      1.89044      .   S
    Cr3227 O3203     1.92625      .   S
    Cr3227 O756      1.88907      .   S
    Cr3222 O433      1.89044      .   S
    Cr3222 O3199     1.92625      .   S
    Cr3222 O431      1.88931      .   S
    Cr3216 O2383     1.89044      .   S
    Cr3216 O3193     1.92625      .   S
    Cr3216 O2381     1.88921      .   S
    Cr3223 O2903     1.89044      .   S
    Cr3223 O3199     1.92625      .   S
    Cr3223 O2901     1.88907      .   S
    C3506  O876      1.26845      .   S
    C3506  O1591     1.26845      .   S
    C3514  O1136     1.26845      .   S
    C3514  O2241     1.26845      .   S
    C3522  O1396     1.26845      .   S
    C3522  O2046     1.26845      .   S
    C3252  C3251     1.48115      .   S
    C3352  C3351     1.48115      .   S
    C3302  C3301     1.48115      .   S
    O889   Cr3370    1.86988      .   S
    O2059  Cr3450    1.87002      .   S
    O1409  Cr3450    1.87089      .   S
    O1604  Cr3370    1.86988      .   S
    O2254  Cr3410    1.87089      .   S
    O1149  Cr3410    1.87002      .   S
    C1369  H1415     1.08338      .   S
    C1369  C3454     1.40557      .   S
    C2214  H2260     1.08338      .   S
    C2214  C3414     1.40557      .   S
    C1109  H1155     1.08338      .   S
    C1109  C3414     1.40611      .   S
    C2019  H2065     1.08338      .   S
    C2019  C3454     1.40611      .   S
    C1564  H1610     1.08338      .   S
    C1564  C3374     1.40558      .   S
    C849   H895      1.08338      .   S
    C849   C3374     1.40558      .   S
    O108   C3257     1.27301      .   S
    O2383  C3257     1.27301      .   S
    O2903  C3307     1.27301      .   S
    O2643  C3357     1.27301      .   S
    O758   C3357     1.27301      .   S
    O433   C3307     1.27301      .   S
    O1396  Cr3141    1.86955      .   S
    O2046  Cr3134    1.86955      .   S
    O1136  Cr3137    1.86955      .   S
    O876   Cr3133    1.86955      .   S
    O2241  Cr3142    1.86955      .   S
    O1591  Cr3138    1.86955      .   S
    O40    Cr3192    1.89821      .   S
    O2965  Cr3198    1.89821      .   S
    O2445  Cr3192    1.89821      .   S
    O495   Cr3198    1.89821      .   S
    O2705  Cr3202    1.89821      .   S
    O690   Cr3202    1.89821      .   S
    C3257  C3258     1.42548      .   S
    C3357  C3358     1.42548      .   S
    C3307  C3308     1.42548      .   S
    C3374  C3373     1.48157      .   S
    C3454  C3453     1.48055      .   S
    C3414  C3413     1.48055      .   S
    O1399  C1371     1.27072      .   S
    O1594  C1566     1.27101      .   S
    O2244  C2216     1.27072      .   S
    O1139  C1111     1.27083      .   S
    O879   C851      1.27101      .   S
    O2049  C2021     1.27083      .   S
    Cr3450 O1400     1.87206      .   S
    Cr3450 O2050     1.87163      .   S
    Cr3410 O2245     1.87206      .   S
    Cr3410 O1140     1.87163      .   S
    Cr3370 O1595     1.87208      .   S
    Cr3370 O880      1.87208      .   S
    C3308  C2882     1.41318      .   S
    C3308  C412      1.41318      .   S
    C3258  C2362     1.41318      .   S
    C3258  C87       1.41318      .   S
    C3358  C2622     1.41318      .   S
    C3358  C737      1.41318      .   S
    H2660  C2622     1.08308      .   S
    H450   C412      1.08308      .   S
    H775   C737      1.08308      .   S
    H2400  C2362     1.08308      .   S
    H125   C87       1.08308      .   S
    H2920  C2882     1.08308      .   S
    C3413  O2243     1.26848      .   S
    C3413  O1138     1.26793      .   S
    C3453  O2048     1.26793      .   S
    C3453  O1398     1.26848      .   S
    C3373  O1593     1.26797      .   S
    C3373  O878      1.26797      .   S
    C3351  O747      1.26899      .   S
    C3351  O2632     1.26899      .   S
    C3251  O2372     1.26899      .   S
    C3251  O97       1.26899      .   S
    C3301  O2892     1.26899      .   S
    C3301  O422      1.26899      .   S
    C2622  C2621     1.40693      .   S
    C2362  C2361     1.40693      .   S
    C737   C736      1.40693      .   S
    C2882  C2881     1.40693      .   S
    C412   C411      1.40693      .   S
    C87    C86       1.40693      .   S
    O2243  Cr3142    1.87068      .   S
    O2048  Cr3134    1.87068      .   S
    O1593  Cr3138    1.87068      .   S
    O1138  Cr3137    1.87068      .   S
    O878   Cr3133    1.87068      .   S
    O1398  Cr3141    1.87068      .   S
    Cr3198 O430      1.89821      .   S
    Cr3198 O2900     1.89821      .   S
    Cr3202 O755      1.89821      .   S
    Cr3202 O2640     1.89821      .   S
    Cr3192 O2380     1.89821      .   S
    Cr3192 O105      1.89821      .   S
    O756   C732      1.27273      .   S
    O431   C407      1.27285      .   S
    O2641  C2617     1.27285      .   S
    O2901  C2877     1.27273      .   S
    O2381  C2357     1.27252      .   S
    O106   C82       1.27252      .   S
    C2881  H2919     1.08260      .   S
    C2881  C3306     1.40922      .   S
    C736   H774      1.08260      .   S
    C736   C3356     1.40922      .   S
    C2361  H2399     1.08260      .   S
    C2361  C3256     1.40869      .   S
    C2621  H2659     1.08260      .   S
    C2621  C3356     1.40868      .   S
    C411   H449      1.08260      .   S
    C411   C3306     1.40868      .   S
    C86    H124      1.08260      .   S
    C86    C3256     1.40869      .   S
    O2372  Cr2341    1.87172      .   S
    O97    Cr66      1.87172      .   S
    O747   Cr716     1.87206      .   S
    O2632  Cr2601    1.87187      .   S
    O2892  Cr2861    1.87206      .   S
    O422   Cr391     1.87187      .   S
    H1218  C1172     1.08308      .   S
    H1803  C1757     1.08350      .   S
    H2193  C2147     1.08337      .   S
    H1478  C1432     1.08337      .   S
    H1868  C1822     1.08308      .   S
    H958   C912      1.08350      .   S
    C2021  O1400     1.26792      .   S
    C2021  C2022     1.49198      .   S
    C1111  O2245     1.26792      .   S
    C1111  C1112     1.49198      .   S
    C2216  O1140     1.26837      .   S
    C2216  C2217     1.49130      .   S
    C851   O1595     1.26777      .   S
    C851   C852      1.49193      .   S
    C1566  O880      1.26777      .   S
    C1566  C1567     1.49193      .   S
    C1371  O2050     1.26837      .   S
    C1371  C1372     1.49130      .   S
    C3306  C3305     1.50353      .   S
    C3256  C3255     1.50353      .   S
    C3356  C3355     1.50353      .   S
    Cr3142 O1461     1.86955      .   S
    Cr3142 O1463     1.87068      .   S
    Cr3133 O1851     1.86955      .   S
    Cr3133 O3533     1.92469      .   S
    Cr3133 O1853     1.87068      .   S
    Cr3134 O941      1.86955      .   S
    Cr3134 O3534     1.92433      .   S
    Cr3134 O943      1.87068      .   S
    Cr3137 O1786     1.86955      .   S
    Cr3137 O3535     1.92433      .   S
    Cr3137 O1788     1.87068      .   S
    Cr3138 O1201     1.86955      .   S
    Cr3138 O1203     1.87068      .   S
    Cr3141 O2176     1.86955      .   S
    Cr3141 O3534     1.92487      .   S
    Cr3141 O2178     1.87068      .   S
    H1417  C1373     1.08261      .   S
    H1157  C1113     1.08261      .   S
    H897   C853      1.08261      .   S
    H1612  C1568     1.08261      .   S
    H2262  C2218     1.08261      .   S
    H2067  C2023     1.08261      .   S
    C3355  O757      1.27233      .   S
    C3355  O2642     1.27123      .   S
    C3305  O2902     1.27233      .   S
    C3305  O432      1.27123      .   S
    C3255  O107      1.27227      .   S
    C3255  O2382     1.27227      .   S
    O2176  C3518     1.26845      .   S
    O1461  C3524     1.26845      .   S
    O1201  C3516     1.26845      .   S
    O1786  C3510     1.26845      .   S
    O1851  C3526     1.26845      .   S
    O941   C3508     1.26845      .   S
    C1822  C1432     1.39567      .   S
    C1822  C3527     1.40848      .   S
    C1432  C3525     1.40880      .   S
    C2147  C1172     1.39567      .   S
    C2147  C3519     1.40880      .   S
    C1757  C912      1.39567      .   S
    C1757  C3511     1.40836      .   S
    C1172  C3517     1.40848      .   S
    C912   C3509     1.40836      .   S
    O757   Cr716     1.88990      .   S
    O2902  Cr2861    1.88990      .   S
    O2642  Cr2601    1.88990      .   S
    O432   Cr391     1.88990      .   S
    O107   Cr66      1.88990      .   S
    O2382  Cr2341    1.88990      .   S
    C2617  O2640     1.27469      .   S
    C2617  C2618     1.50834      .   S
    C82    O105      1.27469      .   S
    C82    C83       1.50834      .   S
    C407   O430      1.27469      .   S
    C407   C408      1.50834      .   S
    C2357  O2380     1.27469      .   S
    C2357  C2358     1.50834      .   S
    C2877  O2900     1.27469      .   S
    C2877  C2878     1.50834      .   S
    C732   O755      1.27469      .   S
    C732   C733      1.50834      .   S
    O3535  Cr3135    1.92487      .   S
    O3533  Cr3143    1.92469      .   S
    H2392  C2348     1.08261      .   S
    H117   C73       1.08261      .   S
    H2912  C2868     1.08261      .   S
    H2652  C2608     1.08261      .   S
    H767   C723      1.08261      .   S
    H442   C398      1.08261      .   S
    C2023  C2022     1.40840      .   S
    C2023  C918      1.40510      .   S
    C853   C852      1.40821      .   S
    C853   C1828     1.40510      .   S
    C1568  C1567     1.40821      .   S
    C1568  C1178     1.40510      .   S
    C1373  C1372     1.40882      .   S
    C1373  C2153     1.40510      .   S
    C2218  C2217     1.40882      .   S
    C2218  C1438     1.40510      .   S
    C1113  C1112     1.40840      .   S
    C1113  C1763     1.40510      .   S
    C1112  C1110     1.40707      .   S
    C2022  C2020     1.40707      .   S
    C1372  C1370     1.40697      .   S
    C2217  C2215     1.40697      .   S
    C1567  C1565     1.40726      .   S
    C852   C850      1.40726      .   S
    H2658  C2620     1.08230      .   S
    H2918  C2880     1.08243      .   S
    H773   C735      1.08243      .   S
    H448   C410      1.08230      .   S
    H2398  C2360     1.08263      .   S
    H123   C85       1.08263      .   S
    Cr716  O749      1.88703      .   S
    Cr716  O3359     1.92607      .   S
    Cr716  O760      1.87184      .   S
    Cr2341 O2374     1.88668      .   S
    Cr2341 O3259     1.92532      .   S
    Cr2341 O2385     1.87258      .   S
    Cr2601 O2634     1.88729      .   S
    Cr2601 O3359     1.92498      .   S
    Cr2601 O2645     1.87232      .   S
    Cr2861 O2894     1.88703      .   S
    Cr2861 O3309     1.92607      .   S
    Cr2861 O2905     1.87184      .   S
    Cr391  O424      1.88729      .   S
    Cr391  O3309     1.92498      .   S
    Cr391  O435      1.87232      .   S
    Cr66   O99       1.88668      .   S
    Cr66   O3259     1.92532      .   S
    Cr66   O110      1.87258      .   S
    O1788  C3393     1.26793      .   S
    O1853  C3473     1.26797      .   S
    O1203  C3423     1.26797      .   S
    O2178  C3433     1.26804      .   S
    O1463  C3463     1.26804      .   S
    O943   C3383     1.26793      .   S
    C3518  C3519     1.40622      .   S
    C3518  O1266     1.26845      .   S
    C3508  C3509     1.40622      .   S
    C3508  O1721     1.26845      .   S
    C3516  C3517     1.40622      .   S
    C3516  O2111     1.26845      .   S
    C3524  C3525     1.40622      .   S
    C3524  O1916     1.26845      .   S
    C3510  C3511     1.40622      .   S
    C3510  O1006     1.26845      .   S
    C3526  C3527     1.40622      .   S
    C3526  O1526     1.26845      .   S
    C3519  C1237     1.40880      .   S
    C3509  C1692     1.40890      .   S
    C3511  C977      1.40890      .   S
    C3527  C1497     1.40848      .   S
    C3525  C1887     1.40880      .   S
    C3517  C2082     1.40848      .   S
    C2868  C723      1.40510      .   S
    C2868  C2867     1.40840      .   S
    C73    C2608     1.40510      .   S
    C73    C72       1.40850      .   S
    C723   C722      1.40840      .   S
    C398   C2348     1.40510      .   S
    C398   C397      1.40882      .   S
    C2608  C2607     1.40882      .   S
    C2348  C2347     1.40850      .   S
    O749   C721      1.27083      .   S
    O2894  C2866     1.27083      .   S
    O99    C71       1.27040      .   S
    O2374  C2346     1.27040      .   S
    O2634  C2606     1.27072      .   S
    O424   C396      1.27072      .   S
    H1480  C1434     1.08338      .   S
    H1805  C1759     1.08338      .   S
    H1220  C1174     1.08338      .   S
    H1870  C1824     1.08338      .   S
    H960   C914      1.08338      .   S
    H2195  C2149     1.08338      .   S
    C2620  C2618     1.41009      .   S
    C2620  C2619     1.40647      .   S
    C85    C83       1.41009      .   S
    C85    C84       1.40647      .   S
    C735   C733      1.41009      .   S
    C735   C734      1.40647      .   S
    C410   C408      1.41009      .   S
    C410   C409      1.40647      .   S
    C2880  C2878     1.41009      .   S
    C2880  C2879     1.40647      .   S
    C2360  C2358     1.41009      .   S
    C2360  C2359     1.40647      .   S
    C83    C81       1.41131      .   S
    C2618  C2616     1.41161      .   S
    C2358  C2356     1.41131      .   S
    C733   C731      1.41150      .   S
    C408   C406      1.41161      .   S
    C2878  C2876     1.41150      .   S
    H1222  C1178     1.08261      .   S
    H1482  C1438     1.08261      .   S
    H2197  C2153     1.08261      .   S
    H1872  C1828     1.08261      .   S
    H962   C918      1.08261      .   S
    H1807  C1763     1.08261      .   S
    C1763  C1762     1.40840      .   S
    C1438  C1437     1.40850      .   S
    C918   C917      1.40840      .   S
    C1178  C1177     1.40821      .   S
    C1828  C1827     1.40821      .   S
    C2153  C2152     1.40850      .   S
    C850   H896      1.08257      .   S
    C850   C1825     1.39819      .   S
    C2215  H2261     1.08257      .   S
    C2215  C1435     1.39819      .   S
    C1565  H1611     1.08257      .   S
    C1565  C1175     1.39819      .   S
    C2020  H2066     1.08257      .   S
    C2020  C915      1.39819      .   S
    C1110  H1156     1.08257      .   S
    C1110  C1760     1.39819      .   S
    C1370  H1416     1.08257      .   S
    C1370  C2150     1.39819      .   S
    O1266  Cr3139    1.86955      .   S
    O1916  Cr3135    1.86955      .   S
    O2111  Cr3143    1.86955      .   S
    O1721  Cr3139    1.86955      .   S
    O1006  Cr3135    1.86955      .   S
    O1526  Cr3143    1.86955      .   S
    C1237  C2082     1.39567      .   S
    C1237  H1283     1.08337      .   S
    C2082  H2128     1.08308      .   S
    C1887  C1497     1.39567      .   S
    C1887  H1933     1.08337      .   S
    C1497  H1543     1.08308      .   S
    C977   C1692     1.39567      .   S
    C977   H1023     1.08295      .   S
    C1692  H1738     1.08295      .   S
    C2606  C2607     1.49130      .   S
    C2606  O750      1.26837      .   S
    C2346  C2347     1.49256      .   S
    C2346  O100      1.26808      .   S
    C721   C722      1.49198      .   S
    C721   O2635     1.26792      .   S
    C396   C397      1.49130      .   S
    C396   O2895     1.26837      .   S
    C71    C72       1.49256      .   S
    C71    O2375     1.26808      .   S
    C2866  C2867     1.49198      .   S
    C2866  O425      1.26792      .   S
    C3383  O1723     1.26848      .   S
    C3383  C3384     1.48055      .   S
    C3433  O1268     1.26804      .   S
    C3433  C3434     1.48126      .   S
    C3423  O2113     1.26797      .   S
    C3423  C3424     1.48157      .   S
    C3393  O1008     1.26848      .   S
    C3393  C3394     1.48055      .   S
    C3463  O1918     1.26804      .   S
    C3463  C3464     1.48126      .   S
    C3473  O1528     1.26797      .   S
    C3473  C3474     1.48157      .   S
    C72    C70       1.40665      .   S
    C397   C395      1.40697      .   S
    C722   C720      1.40707      .   S
    C2867  C2865     1.40707      .   S
    C2607  C2605     1.40697      .   S
    C2347  C2345     1.40665      .   S
    Cr3139 O1723     1.87068      .   S
    Cr3139 O1268     1.87068      .   S
    Cr3143 O1528     1.87068      .   S
    Cr3143 O2113     1.87068      .   S
    Cr3135 O1918     1.87068      .   S
    Cr3135 O1008     1.87068      .   S
    O110   C2364     1.27044      .   S
    O435   C2884     1.27049      .   S
    O2385  C89       1.27044      .   S
    O760   C2624     1.27038      .   S
    O2905  C414      1.27038      .   S
    O2645  C739      1.27049      .   S
    C1759  C3394     1.40611      .   S
    C1759  C1758     1.39584      .   S
    C2149  C3434     1.40567      .   S
    C2149  C2148     1.39584      .   S
    C1174  C3424     1.40558      .   S
    C1174  C1173     1.39584      .   S
    C1824  C3474     1.40558      .   S
    C1824  C1823     1.39584      .   S
    C1434  C3464     1.40567      .   S
    C1434  C1433     1.39584      .   S
    C914   C3384     1.40611      .   S
    C914   C913      1.39584      .   S
    H772   C734      1.08264      .   S
    H2917  C2879     1.08264      .   S
    H122   C84       1.08286      .   S
    H2657  C2619     1.08224      .   S
    H2397  C2359     1.08286      .   S
    H447   C409      1.08224      .   S
    C409   C405      1.41033      .   S
    C2619  C2615     1.41033      .   S
    C84    C80       1.41033      .   S
    C734   C730      1.41033      .   S
    C2359  C2355     1.41033      .   S
    C2879  C2875     1.41033      .   S
    H1804  C1758     1.08349      .   S
    H1219  C1173     1.08296      .   S
    H2194  C2148     1.08306      .   S
    H959   C913      1.08349      .   S
    H1479  C1433     1.08306      .   S
    H1869  C1823     1.08296      .   S
    C2876  H2916     1.08299      .   S
    C2876  C2873     1.41201      .   S
    C731   H771      1.08299      .   S
    C731   C728      1.41201      .   S
    C2356  H2396     1.08341      .   S
    C2356  C2353     1.41201      .   S
    C406   H446      1.08218      .   S
    C406   C403      1.41201      .   S
    C81    H121      1.08341      .   S
    C81    C78       1.41201      .   S
    C2616  H2656     1.08218      .   S
    C2616  C2613     1.41201      .   S
    C2152  C2150     1.40665      .   S
    C2152  C2151     1.49256      .   S
    C1762  C1760     1.40707      .   S
    C1762  C1761     1.49198      .   S
    C1177  C1175     1.40726      .   S
    C1177  C1176     1.49193      .   S
    C917   C915      1.40707      .   S
    C917   C916      1.49198      .   S
    C1827  C1825     1.40726      .   S
    C1827  C1826     1.49193      .   S
    C1437  C1435     1.40665      .   S
    C1437  C1436     1.49256      .   S
    H778   C744      1.08292      .   S
    H2923  C2889     1.08292      .   S
    H2663  C2629     1.08312      .   S
    H2403  C2369     1.08312      .   S
    H128   C94       1.08312      .   S
    H453   C419      1.08312      .   S
    C1435  H1481     1.08257      .   S
    C1825  H1871     1.08257      .   S
    C2150  H2196     1.08257      .   S
    C1760  H1806     1.08257      .   S
    C1175  H1221     1.08257      .   S
    C915   H961      1.08257      .   S
    C3424  C2084     1.40558      .   S
    C3434  C1239     1.40567      .   S
    C3474  C1499     1.40558      .   S
    C3464  C1889     1.40567      .   S
    C3384  C1694     1.40557      .   S
    C3394  C979      1.40557      .   S
    O2375  Cr3250    1.87222      .   S
    O100   Cr3250    1.87222      .   S
    O2635  Cr3350    1.87206      .   S
    O425   Cr3300    1.87206      .   S
    O2895  Cr3300    1.87163      .   S
    O750   Cr3350    1.87163      .   S
    C1433  C3462     1.40603      .   S
    C1758  C3392     1.40603      .   S
    C1173  C3422     1.40603      .   S
    C913   C3382     1.40603      .   S
    C2148  C3432     1.40603      .   S
    C1823  C3472     1.40603      .   S
    C395   C2345     1.39819      .   S
    C395   H441      1.08257      .   S
    C720   C2865     1.39819      .   S
    C720   H766      1.08257      .   S
    C2345  H2391     1.08257      .   S
    C70    C2605     1.39819      .   S
    C70    H116      1.08257      .   S
    C2865  H2911     1.08257      .   S
    C2605  H2651     1.08257      .   S
    Cr3250 O2384     1.86975      .   S
    Cr3250 O109      1.86975      .   S
    Cr3350 O759      1.87002      .   S
    Cr3350 O2644     1.87089      .   S
    Cr3300 O434      1.87089      .   S
    Cr3300 O2904     1.87002      .   S
    C414   O434      1.26629      .   S
    C414   C415      1.47969      .   S
    C2364  O2384     1.26682      .   S
    C2364  C2365     1.47969      .   S
    C2624  O2644     1.26629      .   S
    C2624  C2625     1.47969      .   S
    C739   O759      1.26672      .   S
    C739   C740      1.47969      .   S
    C89    O109      1.26682      .   S
    C89    C90       1.47969      .   S
    C2884  O2904     1.26672      .   S
    C2884  C2885     1.47969      .   S
    C2889  C2885     1.40111      .   S
    C2889  C2890     1.39027      .   S
    C2369  C2365     1.40113      .   S
    C2369  C2370     1.39027      .   S
    C94    C90       1.40113      .   S
    C94    C95       1.39027      .   S
    C2629  C2625     1.40062      .   S
    C2629  C2630     1.39027      .   S
    C419   C415      1.40062      .   S
    C419   C420      1.39027      .   S
    C744   C740      1.40111      .   S
    C744   C745      1.39027      .   S
    C405   C403      1.41150      .   S
    C405   C404      1.50873      .   S
    C2875  C2873     1.41110      .   S
    C2875  C2874     1.50873      .   S
    C730   C728      1.41110      .   S
    C730   C729      1.50873      .   S
    C2355  C2353     1.41088      .   S
    C2355  C2354     1.50873      .   S
    C2615  C2613     1.41150      .   S
    C2615  C2614     1.50873      .   S
    C80    C78       1.41088      .   S
    C80    C79       1.50873      .   S
    C2353  H2395     1.08234      .   S
    C78    H120      1.08234      .   S
    C2873  H2915     1.08234      .   S
    C728   H770      1.08234      .   S
    C403   H445      1.08234      .   S
    C2613  H2655     1.08234      .   S
    O944   C916      1.27083      .   S
    O944   Cr911     1.88703      .   S
    O1789  C1761     1.27083      .   S
    O1789  Cr1756    1.88703      .   S
    O1854  C1826     1.27101      .   S
    O1854  Cr1821    1.88714      .   S
    O2179  C2151     1.27040      .   S
    O2179  Cr2146    1.88668      .   S
    O1204  C1176     1.27101      .   S
    O1204  Cr1171    1.88714      .   S
    O1464  C1436     1.27040      .   S
    O1464  Cr1431    1.88668      .   S
    C2151  O1270     1.26808      .   S
    C1826  O1530     1.26777      .   S
    C1176  O2115     1.26777      .   S
    C1761  O1010     1.26792      .   S
    C916   O1725     1.26792      .   S
    C1436  O1920     1.26808      .   S
    H779   C745      1.08289      .   S
    H454   C420      1.08338      .   S
    H2664  C2630     1.08338      .   S
    H129   C95       1.08287      .   S
    H2924  C2890     1.08289      .   S
    H2404  C2370     1.08287      .   S
    C740   C738      1.41016      .   S
    C415   C413      1.41016      .   S
    C2885  C2883     1.41016      .   S
    C90    C88       1.41016      .   S
    C2365  C2363     1.41016      .   S
    C2625  C2623     1.41016      .   S
    C979   H1025     1.08338      .   S
    C979   C978      1.39584      .   S
    C1239  H1285     1.08338      .   S
    C1239  C1238     1.39584      .   S
    C1499  H1545     1.08338      .   S
    C1499  C1498     1.39584      .   S
    C1889  H1935     1.08338      .   S
    C1889  C1888     1.39584      .   S
    C2084  H2130     1.08338      .   S
    C2084  C2083     1.39584      .   S
    C1694  H1740     1.08338      .   S
    C1694  C1693     1.39584      .   S
    C3382  C1693     1.40603      .   S
    C3382  C3381     1.48115      .   S
    C3392  C978      1.40603      .   S
    C3392  C3391     1.48115      .   S
    C3422  C2083     1.40603      .   S
    C3422  C3421     1.48115      .   S
    C3432  C1238     1.40603      .   S
    C3432  C3431     1.48115      .   S
    C3462  C1888     1.40603      .   S
    C3462  C3461     1.48115      .   S
    C3472  C1498     1.40603      .   S
    C3472  C3471     1.48115      .   S
    C95    C93       1.40857      .   S
    C420   C418      1.40860      .   S
    C745   C743      1.40878      .   S
    C2630  C2628     1.40860      .   S
    C2890  C2888     1.40878      .   S
    C2370  C2368     1.40857      .   S
    O1462  Cr1431    1.87172      .   S
    O1462  C3461     1.26899      .   S
    O942   Cr911     1.87206      .   S
    O942   C3381     1.26899      .   S
    O1787  Cr1756    1.87206      .   S
    O1787  C3391     1.26899      .   S
    O1852  Cr1821    1.87145      .   S
    O1852  C3471     1.26899      .   S
    O1202  Cr1171    1.87145      .   S
    O1202  C3421     1.26899      .   S
    O2177  Cr2146    1.87172      .   S
    O2177  C3431     1.26899      .   S
    H1298  C1264     1.08312      .   S
    H1753  C1719     1.08312      .   S
    H1948  C1914     1.08312      .   S
    H1038  C1004     1.08312      .   S
    H1558  C1524     1.08353      .   S
    H2143  C2109     1.08353      .   S
    O2379  C2354     1.27302      .   S
    O2379  Cr3186    1.88823      .   S
    O104   C79       1.27302      .   S
    O104   Cr3146    1.88823      .   S
    O2639  C2614     1.27239      .   S
    O2639  Cr3176    1.88869      .   S
    O429   C404      1.27239      .   S
    O429   Cr3156    1.88869      .   S
    O754   C729      1.27276      .   S
    O754   Cr3166    1.88832      .   S
    O2899  C2874     1.27276      .   S
    O2899  Cr3174    1.88832      .   S
    H1559  C1525     1.08327      .   S
    H1039  C1005     1.08338      .   S
    H1949  C1915     1.08287      .   S
    H1299  C1265     1.08287      .   S
    H2144  C2110     1.08327      .   S
    H1754  C1720     1.08338      .   S
    C404   O428      1.27495      .   S
    C729   O753      1.27495      .   S
    C2614  O2638     1.27495      .   S
    C2354  O2378     1.27495      .   S
    C79    O103      1.27495      .   S
    C2874  O2898     1.27495      .   S
    C1498  H1544     1.08296      .   S
    C1693  H1739     1.08294      .   S
    C1888  H1934     1.08306      .   S
    C1238  H1284     1.08306      .   S
    C978   H1024     1.08294      .   S
    C2083  H2129     1.08296      .   S
    O1530  Cr3470    1.87208      .   S
    O1920  Cr3460    1.87222      .   S
    O2115  Cr3420    1.87208      .   S
    O1725  Cr3380    1.87206      .   S
    O1010  Cr3390    1.87206      .   S
    O1270  Cr3430    1.87222      .   S
    Cr1171 O1215     1.87307      .   S
    Cr1171 O1212     1.88990      .   S
    Cr1171 O3429     1.92593      .   S
    Cr1821 O1865     1.87307      .   S
    Cr1821 O1862     1.88990      .   S
    Cr1821 O3479     1.92593      .   S
    Cr1756 O1800     1.87184      .   S
    Cr1756 O1797     1.88990      .   S
    Cr1756 O3399     1.92607      .   S
    Cr1431 O1475     1.87258      .   S
    Cr1431 O1472     1.88990      .   S
    Cr1431 O3469     1.92532      .   S
    Cr911  O955      1.87184      .   S
    Cr911  O952      1.88990      .   S
    Cr911  O3389     1.92607      .   S
    Cr2146 O2190     1.87258      .   S
    Cr2146 O2187     1.88990      .   S
    Cr2146 O3439     1.92532      .   S
    C3391  O1007     1.26899      .   S
    C3421  O2112     1.26899      .   S
    C3381  O1722     1.26899      .   S
    C3431  O1267     1.26899      .   S
    C3461  O1917     1.26899      .   S
    C3471  O1527     1.26899      .   S
    C1719  C1720     1.39027      .   S
    C1719  C1715     1.40062      .   S
    C1524  C1525     1.39027      .   S
    C1524  C1520     1.40076      .   S
    C1914  C1915     1.39027      .   S
    C1914  C1910     1.40113      .   S
    C2109  C2110     1.39027      .   S
    C2109  C2105     1.40076      .   S
    C1004  C1005     1.39027      .   S
    C1004  C1000     1.40062      .   S
    C1264  C1265     1.39027      .   S
    C1264  C1260     1.40113      .   S
    O955   C1714     1.27038      .   S
    O1475  C1909     1.27044      .   S
    O1215  C2104     1.26993      .   S
    O1800  C999      1.27038      .   S
    O2190  C1259     1.27044      .   S
    O1865  C1519     1.26993      .   S
    C2110  C2108     1.40817      .   S
    C1525  C1523     1.40817      .   S
    C1720  C1718     1.40860      .   S
    C1005  C1003     1.40860      .   S
    C1915  C1913     1.40857      .   S
    C1265  C1263     1.40857      .   S
    C738   H776      1.08281      .   S
    C738   C741      1.40238      .   S
    C88    H126      1.08279      .   S
    C88    C91       1.40238      .   S
    C2883  H2921     1.08281      .   S
    C2883  C2886     1.40238      .   S
    C413   H451      1.08330      .   S
    C413   C416      1.40238      .   S
    C2623  H2661     1.08330      .   S
    C2623  C2626     1.40238      .   S
    C2363  H2401     1.08279      .   S
    C2363  C2366     1.40238      .   S
    C2888  C2886     1.40426      .   S
    C2888  C1197     1.48153      .   S
    C743   C741      1.40426      .   S
    C743   C1847     1.48153      .   S
    C418   C416      1.40426      .   S
    C418   C1782     1.48181      .   S
    C2368  C2366     1.40426      .   S
    C2368  C1457     1.48126      .   S
    C2628  C2626     1.40426      .   S
    C2628  C937      1.48181      .   S
    C93    C91       1.40426      .   S
    C93    C2172     1.48126      .   S
    O2907  Cr3174    1.84852      .   S
    O2907  C1782     1.26278      .   S
    O2647  Cr3176    1.84888      .   S
    O2647  C1847     1.26278      .   S
    O2387  Cr3186    1.84913      .   S
    O2387  C2172     1.26278      .   S
    O112   Cr3146    1.84913      .   S
    O112   C1457     1.26278      .   S
    O762   Cr3166    1.84852      .   S
    O762   C937      1.26278      .   S
    O437   Cr3156    1.84888      .   S
    O437   C1197     1.26278      .   S
    C1519  C1520     1.47969  1_565   S
    C1519  O1539     1.26639      .   S
    C999   C1000     1.47969      .   S
    C999   O1019     1.26629      .   S
    C2104  C2105     1.47969  1_655   S
    C2104  O2124     1.26639      .   S
    C1909  C1910     1.47969  1_565   S
    C1909  O1929     1.26682      .   S
    C1259  C1260     1.47969  1_655   S
    C1259  O1279     1.26682      .   S
    C1714  C1715     1.47969      .   S
    C1714  O1734     1.26629      .   S
    H1879  C1841     1.08260      .   S
    H1229  C1191     1.08260      .   S
    H2204  C2166     1.08260      .   S
    H1489  C1451     1.08260      .   S
    H969   C931      1.08260      .   S
    H1814  C1776     1.08260      .   S
    Cr3176 O1867     1.84892      .   S
    Cr3176 O1859     1.88873      .   S
    Cr3176 O3177     1.92102      .   S
    Cr3146 O1477     1.84913      .   S
    Cr3146 O1469     1.88823      .   S
    Cr3146 O3147     1.92102      .   S
    Cr3156 O1217     1.84892      .   S
    Cr3156 O1209     1.88873      .   S
    Cr3156 O3157     1.92102      .   S
    Cr3166 O957      1.84852      .   S
    Cr3166 O949      1.88832      .   S
    Cr3166 O3167     1.92102      .   S
    Cr3186 O2192     1.84913      .   S
    Cr3186 O2184     1.88823      .   S
    Cr3186 O3187     1.92102      .   S
    Cr3174 O1802     1.84852      .   S
    Cr3174 O1794     1.88832      .   S
    Cr3174 O3175     1.92102      .   S
    O428   Cr390     1.90167      .   S
    O2378  Cr2340    1.90167      .   S
    O2638  Cr2600    1.90167      .   S
    O2898  Cr2860    1.90167      .   S
    O103   Cr65      1.90167      .   S
    O753   Cr715     1.90167      .   S
    C1260  C1258     1.41016      .   S
    C1715  C1713     1.41016      .   S
    C2105  C2103     1.41016      .   S
    C1520  C1518     1.41016      .   S
    C1910  C1908     1.41016      .   S
    C1000  C998      1.41016      .   S
    O1862  C3475     1.27177      .   S
    O2187  C3435     1.27227      .   S
    O1212  C3425     1.27177      .   S
    O1797  C3395     1.27233      .   S
    O952   C3385     1.27233      .   S
    O1472  C3465     1.27227      .   S
    O1867  C2627     1.26278      .   S
    O1217  C417      1.26278      .   S
    O957   C742      1.26278      .   S
    O1802  C2887     1.26278      .   S
    O2192  C2367     1.26278      .   S
    O1477  C92       1.26278      .   S
    C91    H127      1.08313      .   S
    C741   H777      1.08334      .   S
    C416   H452      1.08314      .   S
    C2366  H2402     1.08313      .   S
    C2626  H2662     1.08314      .   S
    C2886  H2922     1.08334      .   S
    O1722  Cr1691    1.87187      .   S
    O1527  Cr1496    1.87145      .   S
    O2112  Cr2081    1.87145      .   S
    O1917  Cr1886    1.87172      .   S
    O1267  Cr1236    1.87172      .   S
    O1007  Cr976     1.87187      .   S
    C1263  C2367     1.48126      .   S
    C1263  C1261     1.40426      .   S
    C1003  C2887     1.48181      .   S
    C1003  C1001     1.40426      .   S
    C1718  C742      1.48181      .   S
    C1718  C1716     1.40426      .   S
    C2108  C417      1.48129      .   S
    C2108  C2106     1.40426      .   S
    C1913  C92       1.48126      .   S
    C1913  C1911     1.40426      .   S
    C1523  C2627     1.48129      .   S
    C1523  C1521     1.40426      .   S
    C1847  O1866     1.27213      .   S
    C937   O956      1.27224      .   S
    C2172  O2191     1.27227      .   S
    C1457  O1476     1.27227      .   S
    C1197  O1216     1.27213      .   S
    C1782  O1801     1.27224      .   S
    O1734  Cr3380    1.87089      .   S
    O1279  Cr3430    1.86975      .   S
    O2124  Cr3420    1.86988      .   S
    O1019  Cr3390    1.87089      .   S
    O1929  Cr3460    1.86975      .   S
    O1539  Cr3470    1.86988      .   S
    O3399  Cr976     1.92498      .   S
    O3389  Cr1691    1.92498      .   S
    O3479  Cr1496    1.92593      .   S
    O3439  Cr1236    1.92532      .   S
    O3469  Cr1886    1.92532      .   S
    O3429  Cr2081    1.92593      .   S
    H967   C929      1.08264      .   S
    H2202  C2164     1.08286      .   S
    H1877  C1839     1.08261      .   S
    H1227  C1189     1.08261      .   S
    H1487  C1449     1.08286      .   S
    H1812  C1774     1.08264      .   S
    C2367  O2386     1.27227      .   S
    C742   O761      1.27224      .   S
    C92    O111      1.27227      .   S
    C2887  O2906     1.27224      .   S
    C2627  O2646     1.27271      .   S
    C417   O436      1.27271      .   S
    Cr3420 O1205     1.87208      .   S
    Cr3420 O1214     1.86988      .   S
    Cr3470 O1855     1.87208      .   S
    Cr3470 O1864     1.86988      .   S
    Cr3460 O1465     1.87222      .   S
    Cr3460 O1474     1.86975      .   S
    Cr3380 O945      1.87163      .   S
    Cr3380 O954      1.87002      .   S
    Cr3390 O1790     1.87163      .   S
    Cr3390 O1799     1.87002      .   S
    Cr3430 O2180     1.87222      .   S
    Cr3430 O2189     1.86975      .   S
    H1490  C1452     1.08308      .   S
    H970   C932      1.08308      .   S
    H1815  C1777     1.08308      .   S
    H2205  C2167     1.08308      .   S
    H1230  C1192     1.08308      .   S
    H1880  C1842     1.08308      .   S
    C1451  C1452     1.40693      .   S
    C1451  C3466     1.40869      .   S
    C2166  C2167     1.40693      .   S
    C2166  C3436     1.40869      .   S
    C1191  C1192     1.40693      .   S
    C1191  C3426     1.40896      .   S
    C1841  C1842     1.40693      .   S
    C1841  C3476     1.40896      .   S
    C931   C932      1.40693      .   S
    C931   C3386     1.40922      .   S
    C1776  C1777     1.40693      .   S
    C1776  C3396     1.40922      .   S
    C2103  C2106     1.40238      .   S
    C2103  H2141     1.08317  1_455   S
    C1518  C1521     1.40238      .   S
    C1518  H1556     1.08317  1_545   S
    C1713  C1716     1.40238      .   S
    C1713  H1751     1.08330      .   S
    C1258  C1261     1.40238      .   S
    C1258  H1296     1.08279  1_455   S
    C998   C1001     1.40238      .   S
    C998   H1036     1.08330      .   S
    C1908  C1911     1.40238      .   S
    C1908  H1946     1.08279  1_545   S
    H1741  C1695     1.08257      .   S
    H1286  C1240     1.08257      .   S
    H1936  C1890     1.08257      .   S
    H1026  C980      1.08257      .   S
    H1546  C1500     1.08257      .   S
    H2131  C2085     1.08257      .   S
    O1209  C1184     1.27276      .   S
    O2184  C2159     1.27302      .   S
    O1859  C1834     1.27276      .   S
    O1469  C1444     1.27302      .   S
    O949   C924      1.27276      .   S
    O1794  C1769     1.27276      .   S
    O1790  C981      1.26837      .   S
    O1855  C1501     1.26777      .   S
    O2180  C1241     1.26808      .   S
    O1205  C2086     1.26777      .   S
    O945   C1696     1.26837      .   S
    O1465  C1891     1.26808      .   S
    C1911  H1947     1.08313      .   S
    C2106  H2142     1.08273      .   S
    C1521  H1557     1.08273      .   S
    C1716  H1752     1.08314      .   S
    C1001  H1037     1.08314      .   S
    C1261  H1297     1.08313      .   S
    H1878  C1840     1.08289      .   S
    H968   C930      1.08243      .   S
    H2203  C2165     1.08263      .   S
    H1488  C1450     1.08263      .   S
    H1813  C1775     1.08243      .   S
    H1228  C1190     1.08289      .   S
    C3475  C3476     1.50353      .   S
    C3475  O1537     1.27177      .   S
    C3465  C3466     1.50353      .   S
    C3465  O1927     1.27227      .   S
    C3435  C3436     1.50353      .   S
    C3435  O1277     1.27227      .   S
    C3385  C3386     1.50353      .   S
    C3385  O1732     1.27123      .   S
    C3425  C3426     1.50353      .   S
    C3425  O2122     1.27177      .   S
    C3395  C3396     1.50353      .   S
    C3395  O1017     1.27123      .   S
    C1695  C1240     1.39819      .   S
    C1695  C1697     1.40697      .   S
    C1500  C2085     1.39819      .   S
    C1500  C1502     1.40726      .   S
    C980   C1890     1.39819      .   S
    C980   C982      1.40697      .   S
    C2085  C2087     1.40726      .   S
    C1240  C1242     1.40665      .   S
    C1890  C1892     1.40665      .   S
    O2386  Cr2340    1.89273      .   S
    O436   Cr390     1.89273      .   S
    O761   Cr715     1.89273      .   S
    O111   Cr65      1.89273      .   S
    O2646  Cr2600    1.89273      .   S
    O2906  Cr2860    1.89273      .   S
    C1777  C3398     1.41318      .   S
    C1842  C3478     1.41318      .   S
    C1192  C3428     1.41318      .   S
    C2167  C3438     1.41318      .   S
    C1452  C3468     1.41318      .   S
    C932   C3388     1.41318      .   S
    C981   C982      1.49130      .   S
    C981   O1009     1.27072      .   S
    C2086  C2087     1.49193      .   S
    C2086  O2114     1.27101      .   S
    C1696  C1697     1.49130      .   S
    C1696  O1724     1.27072      .   S
    C1891  C1892     1.49256      .   S
    C1891  O1919     1.27040      .   S
    C1501  C1502     1.49193      .   S
    C1501  O1529     1.27101      .   S
    C1241  C1242     1.49256      .   S
    C1241  O1269     1.27040      .   S
    C1892  C1893     1.40850      .   S
    C1697  C1698     1.40882      .   S
    C1502  C1503     1.40821      .   S
    C982   C983      1.40882      .   S
    C2087  C2088     1.40821      .   S
    C1242  C1243     1.40850      .   S
    C1774  C1775     1.40647      .   S
    C1774  C1770     1.41033      .   S
    C1449  C1450     1.40647      .   S
    C1449  C1445     1.41033      .   S
    C929   C930      1.40647      .   S
    C929   C925      1.41033      .   S
    C1189  C1190     1.40647      .   S
    C1189  C1185     1.41033      .   S
    C2164  C2165     1.40647      .   S
    C2164  C2160     1.41033      .   S
    C1839  C1840     1.40647      .   S
    C1839  C1835     1.41033      .   S
    O3157  Cr390     1.93298      .   S
    O3187  Cr2145    1.93298      .   S
    O3177  Cr2600    1.93298      .   S
    O3175  Cr2860    1.93298      .   S
    O3167  Cr715     1.93298      .   S
    O3147  Cr1430    1.93298      .   S
    O1866  Cr1820    1.89273      .   S
    O1476  Cr1430    1.89273      .   S
    O956   Cr910     1.89273      .   S
    O2191  Cr2145    1.89273      .   S
    O1801  Cr1755    1.89273      .   S
    O1216  Cr1170    1.89273      .   S
    C3426  C2101     1.40896      .   S
    C3436  C1256     1.40869      .   S
    C3466  C1906     1.40869      .   S
    C3476  C1516     1.40896      .   S
    C3396  C996      1.40868      .   S
    C3386  C1711     1.40868      .   S
    Cr1236 O1269     1.88668      .   S
    Cr1236 O1277     1.88990      .   S
    Cr1236 O1280     1.87258      .   S
    Cr976  O1009     1.88729      .   S
    Cr976  O1017     1.88990      .   S
    Cr976  O1020     1.87232      .   S
    Cr1691 O1724     1.88729      .   S
    Cr1691 O1732     1.88990      .   S
    Cr1691 O1735     1.87232      .   S
    Cr1496 O1529     1.88714      .   S
    Cr1496 O1537     1.88990      .   S
    Cr1496 O1540     1.87307      .   S
    Cr2081 O2114     1.88714      .   S
    Cr2081 O2122     1.88990      .   S
    Cr2081 O2125     1.87307      .   S
    Cr1886 O1919     1.88668      .   S
    Cr1886 O1927     1.88990      .   S
    Cr1886 O1930     1.87258      .   S
    Cr2860 O2896     1.89409      .   S
    Cr2860 O2897     1.89929      .   S
    Cr715  O751      1.89409      .   S
    Cr715  O752      1.89929      .   S
    Cr65   O101      1.89409      .   S
    Cr65   O102      1.89940      .   S
    Cr390  O426      1.89409      .   S
    Cr390  O427      1.89948      .   S
    Cr2340 O2376     1.89409      .   S
    Cr2340 O2377     1.89940      .   S
    Cr2600 O2636     1.89409      .   S
    Cr2600 O2637     1.89948      .   S
    C1243  C1698     1.40510      .   S
    C1243  H1287     1.08261      .   S
    C1698  H1742     1.08261      .   S
    C1503  C2088     1.40510      .   S
    C1503  H1547     1.08261      .   S
    C2088  H2132     1.08261      .   S
    C1893  C983      1.40510      .   S
    C1893  H1937     1.08261      .   S
    C983   H1027     1.08261      .   S
    C1190  C1188     1.41009      .   S
    C1450  C1448     1.41009      .   S
    C1840  C1838     1.41009      .   S
    C2165  C2163     1.41009      .   S
    C1775  C1773     1.41009      .   S
    C930   C928      1.41009      .   S
    C1834  C1835     1.50873      .   S
    C1834  O1858     1.27495      .   S
    C1184  C1185     1.50873      .   S
    C1184  O1208     1.27495      .   S
    C1769  C1770     1.50873      .   S
    C1769  O1793     1.27495      .   S
    C924   C925      1.50873      .   S
    C924   O948      1.27495      .   S
    C1444  C1445     1.50873      .   S
    C1444  O1468     1.27495      .   S
    C2159  C2160     1.50873      .   S
    C2159  O2183     1.27495      .   S
    H118   C74       1.08332      .   S
    H2653  C2609     1.08302      .   S
    H2913  C2869     1.08272      .   S
    H2393  C2349     1.08332      .   S
    H443   C399      1.08302      .   S
    H768   C724      1.08272      .   S
    O751   C725      1.27399      .   S
    O2376  C2350     1.27399      .   S
    O426   C400      1.27399      .   S
    O101   C75       1.27399      .   S
    O2896  C2870     1.27399      .   S
    O2636  C2610     1.27399      .   S
    O1473  Cr3238    1.89044  1_565   S
    O1473  C3467     1.27301      .   S
    O1863  Cr3238    1.89044  1_565   S
    O1863  C3477     1.27301      .   S
    O1798  Cr3230    1.89044      .   S
    O1798  C3397     1.27301      .   S
    O953   Cr3230    1.89044      .   S
    O953   C3387     1.27301      .   S
    O1213  Cr3234    1.89044  1_655   S
    O1213  C3427     1.27301      .   S
    O2188  Cr3234    1.89044  1_655   S
    O2188  C3437     1.27301      .   S
    C724   C2609     1.40950      .   S
    C724   C726      1.41100      .   S
    C2349  C74       1.40950      .   S
    C2349  C2351     1.41127      .   S
    C2609  C2611     1.41067      .   S
    C399   C2869     1.40950      .   S
    C399   C401      1.41067      .   S
    C2869  C2871     1.41100      .   S
    C74    C76       1.41127      .   S
    C1770  C1768     1.41110      .   S
    C1185  C1183     1.41116      .   S
    C1445  C1443     1.41088      .   S
    C925   C923      1.41110      .   S
    C1835  C1833     1.41116      .   S
    C2160  C2158     1.41088      .   S
    O1799  C1779     1.26672      .   S
    O1864  C1844     1.26639      .   S
    O954   C934      1.26672      .   S
    O1474  C1454     1.26682      .   S
    O2189  C2169     1.26682      .   S
    O1214  C1194     1.26639      .   S
    C3398  C3397     1.42548      .   S
    C3398  C997      1.41318      .   S
    C3438  C3437     1.42548      .   S
    C3438  C1257     1.41318      .   S
    C3388  C3387     1.42548      .   S
    C3388  C1712     1.41318      .   S
    C3428  C3427     1.42548      .   S
    C3428  C2102     1.41318      .   S
    C3468  C3467     1.42548      .   S
    C3468  C1907     1.41318      .   S
    C3478  C3477     1.42548      .   S
    C3478  C1517     1.41318      .   S
    Cr3238 O1471     1.88921      .   S
    Cr3238 O1861     1.88967      .   S
    Cr3238 O3215     1.92625  1_545   S
    Cr3234 O1211     1.88967      .   S
    Cr3234 O2186     1.88921      .   S
    Cr3234 O3211     1.92625  1_455   S
    Cr3230 O1796     1.88907      .   S
    Cr3230 O951      1.88907      .   S
    Cr3230 O3207     1.92625      .   S
    O1211  C1187     1.27227      .   S
    O1796  C1772     1.27273      .   S
    O2186  C2162     1.27252      .   S
    O1471  C1447     1.27252      .   S
    O951   C927      1.27273      .   S
    O1861  C1837     1.27227      .   S
    C400   C401      1.51132      .   S
    C400   O1207     1.27492      .   S
    C75    C76       1.51099      .   S
    C75    O1467     1.27552      .   S
    C2870  C2871     1.51070      .   S
    C2870  O1792     1.27522      .   S
    C2610  C2611     1.51132      .   S
    C2610  O1857     1.27492      .   S
    C725   C726      1.51070      .   S
    C725   O947      1.27522      .   S
    C2350  C2351     1.51099      .   S
    C2350  O2182     1.27552      .   S
    C2871  C2872     1.41173      .   S
    C2351  C2352     1.41113      .   S
    C726   C727      1.41173      .   S
    C401   C402      1.41140      .   S
    C2611  C2612     1.41140      .   S
    C76    C77       1.41113      .   S
    C1711  C1712     1.40693      .   S
    C1711  H1749     1.08260      .   S
    C2101  C2102     1.40693      .   S
    C2101  H2139     1.08260      .   S
    C1516  C1517     1.40693      .   S
    C1516  H1554     1.08260      .   S
    C1256  C1257     1.40693      .   S
    C1256  H1294     1.08260      .   S
    C996   C997      1.40693      .   S
    C996   H1034     1.08260      .   S
    C1906  C1907     1.40693      .   S
    C1906  H1944     1.08260      .   S
    O1793  Cr1755    1.90167      .   S
    O948   Cr910     1.90167      .   S
    O1858  Cr1820    1.90167      .   S
    O2183  Cr2145    1.90167      .   S
    O1208  Cr1170    1.90167      .   S
    O1468  Cr1430    1.90167      .   S
    Cr1430 O1467     1.89940      .   S
    Cr1430 O1466     1.89409      .   S
    Cr2145 O2182     1.89940      .   S
    Cr2145 O2181     1.89409      .   S
    Cr1820 O1857     1.89988      .   S
    Cr1820 O1856     1.89409      .   S
    Cr1755 O1792     1.89929      .   S
    Cr1755 O1791     1.89409      .   S
    Cr910  O947      1.89929      .   S
    Cr910  O946      1.89409      .   S
    Cr1170 O1207     1.89988      .   S
    Cr1170 O1206     1.89409      .   S
    C3477  O1538     1.27301      .   S
    C3437  O1278     1.27301      .   S
    C3387  O1733     1.27301      .   S
    C3427  O2123     1.27301      .   S
    C3467  O1928     1.27301      .   S
    C3397  O1018     1.27301      .   S
    C1448  C1447     1.50834      .   S
    C1448  C1446     1.41131      .   S
    C928   C927      1.50834      .   S
    C928   C926      1.41150      .   S
    C1188  C1187     1.50834      .   S
    C1188  C1186     1.41102      .   S
    C1838  C1837     1.50834      .   S
    C1838  C1836     1.41102      .   S
    C1773  C1772     1.50834      .   S
    C1773  C1771     1.41150      .   S
    C2163  C2162     1.50834      .   S
    C2163  C2161     1.41131      .   S
    O2125  C1194     1.26993      .   S
    O1540  C1844     1.26993      .   S
    O1020  C1779     1.27049      .   S
    O1280  C2169     1.27044      .   S
    O1930  C1454     1.27044      .   S
    O1735  C934      1.27049      .   S
    C2612  C727      1.41076      .   S
    C2612  H2654     1.08252      .   S
    C77    C2352     1.41076      .   S
    C77    H119      1.08252      .   S
    C727   H769      1.08252      .   S
    C402   C2872     1.41076      .   S
    C402   H444      1.08252      .   S
    C2872  H2914     1.08252      .   S
    C2352  H2394     1.08252      .   S
    C1517  H1555     1.08308      .   S
    C1712  H1750     1.08308      .   S
    C1257  H1295     1.08308      .   S
    C2102  H2140     1.08308      .   S
    C997   H1035     1.08308      .   S
    C1907  H1945     1.08308      .   S
    O427   C1180     1.27509      .   S
    O2377  C2155     1.27552      .   S
    O752   C920      1.27522      .   S
    O2637  C1830     1.27509      .   S
    O2897  C1765     1.27522      .   S
    O102   C1440     1.27552      .   S
    C1833  C1836     1.41201      .   S
    C1833  H1875     1.08234      .   S
    C2158  C2161     1.41201      .   S
    C2158  H2200     1.08234      .   S
    C923   C926      1.41201      .   S
    C923   H965      1.08234      .   S
    C1443  C1446     1.41201      .   S
    C1443  H1485     1.08234      .   S
    C1768  C1771     1.41201      .   S
    C1768  H1810     1.08234      .   S
    C1183  C1186     1.41201      .   S
    C1183  H1225     1.08234      .   S
    O2181  C2155     1.27399      .   S
    O946   C920      1.27399      .   S
    O1791  C1765     1.27399      .   S
    O1466  C1440     1.27399      .   S
    O1856  C1830     1.27399      .   S
    O1206  C1180     1.27399      .   S
    O3145  Cr0       1.93298      .   S
    O3147  Cr65      1.93298      .   S
    O3149  Cr130     1.93298      .   S
    O3151  Cr1300    1.93298      .   S
    O3153  Cr1040    1.93298      .   S
    O3155  Cr325     1.93298      .   S
    O3157  Cr1170    1.93298      .   S
    O3159  Cr1105    1.93298      .   S
    O3161  Cr520     1.93298      .   S
    O3163  Cr585     1.93298      .   S
    O3165  Cr845     1.93298      .   S
    O3167  Cr910     1.93298      .   S
    O3169  Cr1560    1.93298      .   S
    O3171  Cr2990    1.93298      .   S
    O3173  Cr1690    1.93298      .   S
    O3175  Cr1755    1.93298      .   S
    O3177  Cr1820    1.93298      .   S
    O3179  Cr2795    1.93298      .   S
    O3181  Cr1950    1.93298      .   S
    O3183  Cr2015    1.93298      .   S
    O3185  Cr2535    1.93298      .   S
    O3187  Cr2340    1.93298      .   S
    O3189  Cr2405    1.93298      .   S
    O3191  Cr2470    1.93298      .   S
    O3193  Cr3192    1.93201      .   S
    O3195  Cr3194    1.93201      .   S
    O3197  Cr3196    1.93201      .   S
    O3199  Cr3198    1.93201      .   S
    O3201  Cr3200    1.93201      .   S
    O3203  Cr3202    1.93201      .   S
    O3205  Cr3204    1.93201  1_665   S
    O3207  Cr3206    1.93201  1_556   S
    O3209  Cr3208    1.93201  1_565   S
    O3211  Cr3210    1.93201  1_656   S
    O3213  Cr3212    1.93201  1_655   S
    O3215  Cr3214    1.93201  1_566   S
    O3249  Cr3240    1.92913      .   S
    O3259  Cr3250    1.92913      .   S
    O3269  Cr3260    1.92913      .   S
    O3279  Cr3270    1.92913      .   S
    O3289  Cr3280    1.92913      .   S
    O3299  Cr3290    1.92913      .   S
    O3309  Cr3300    1.92913      .   S
    O3319  Cr3310    1.92913      .   S
    O3329  Cr3320    1.92913      .   S
    O3339  Cr3330    1.92913      .   S
    O3349  Cr3340    1.92913      .   S
    O3359  Cr3350    1.92913      .   S
    O3369  Cr3360    1.92913      .   S
    O3379  Cr3370    1.92913      .   S
    O3389  Cr3380    1.92913      .   S
    O3399  Cr3390    1.92913      .   S
    O3409  Cr3400    1.92913      .   S
    O3419  Cr3410    1.92913      .   S
    O3429  Cr3420    1.92913      .   S
    O3439  Cr3430    1.92913      .   S
    O3449  Cr3440    1.92913      .   S
    O3459  Cr3450    1.92913      .   S
    O3469  Cr3460    1.92913      .   S
    O3479  Cr3470    1.92913      .   S
    O3528  Cr3120    1.92469      .   S
    O3529  Cr3126    1.92487      .   S
    O3530  Cr3129    1.92487      .   S
    O3531  Cr3125    1.92487      .   S
    O3532  Cr3132    1.92487      .   S
    O3533  Cr3138    1.92469      .   S
    O3534  Cr3139    1.92487      .   S
    O3535  Cr3142    1.92487      .   S
