# CIF file generated by openbabel 2.4.90, see http://openbabel.sf.net
data_I
_chemical_name_common ''
_cell_length_a 62.8399
_cell_length_b 62.8399
_cell_length_c 62.8399
_cell_angle_alpha 60
_cell_angle_beta 60
_cell_angle_gamma 60
_space_group_name_H-M_alt 'P 1'
_space_group_name_Hall 'P 1'
loop_
    _symmetry_equiv_pos_as_xyz
    x,y,z
loop_
    _atom_site_label
    _atom_site_type_symbol
    _atom_site_fract_x
    _atom_site_fract_y
    _atom_site_fract_z
    _atom_site_occupancy
    C0      C    0.42240   0.46092   0.54723   1.000
    C1      C    0.36102   0.39955   0.51247   1.000
    C2      C    0.37603   0.41455   0.50403   1.000
    C3      C    0.31679   0.40521   0.42746   1.000
    C4      C    0.31089   0.40641   0.45167   1.000
    C5      C    0.30458   0.43068   0.45304   1.000
    C6      C    0.18594   0.20837   0.64843   1.000
    C7      C    0.18218   0.22795   0.62494   1.000
    C8      C    0.20145   0.22390   0.60143   1.000
    C9      C    0.16297   0.26799   0.70516   1.000
    C10     C    0.15870   0.29240   0.68530   1.000
    C11     C    0.17681   0.26152   0.72083   1.000
    C12     C    0.18675   0.27927   0.71726   1.000
    C13     C    0.16851   0.31016   0.68190   1.000
    C14     C    0.18222   0.30374   0.69757   1.000
    C15     C    0.28425   0.32264   0.62099   1.000
    C16     C    0.27520   0.31363   0.64841   1.000
    C17     C    0.32224   0.24194   0.53632   1.000
    C18     C    0.33972   0.24672   0.53987   1.000
    C19     C    0.31889   0.21750   0.54938   1.000
    C20     C    0.33299   0.19747   0.56615   1.000
    C21     C    0.35438   0.22638   0.55592   1.000
    C22     C    0.35111   0.20213   0.56881   1.000
    H23     H    0.40729   0.47622   0.53902   1.000
    H24     H    0.34037   0.40917   0.51532   1.000
    H25     H    0.36649   0.43529   0.50073   1.000
    H26     H    0.32174   0.38695   0.42554   1.000
    H27     H    0.29999   0.43236   0.47131   1.000
    H28     H    0.17176   0.21061   0.66698   1.000
    H29     H    0.19950   0.23842   0.58290   1.000
    H30     H    0.15579   0.25374   0.70849   1.000
    H31     H    0.17998   0.24241   0.73557   1.000
    H32     H    0.16567   0.32917   0.66698   1.000
    H33     H    0.18961   0.31797   0.69394   1.000
    H34     H    0.27242   0.34107   0.61090   1.000
    H35     H    0.25665   0.32549   0.65835   1.000
    H36     H    0.31059   0.25730   0.52408   1.000
    H37     H    0.30483   0.21452   0.54690   1.000
    H38     H    0.36814   0.22928   0.55895   1.000
    H39     H    0.36260   0.18711   0.58131   1.000
    C40     C    0.46092   0.42240   0.56944   1.000
    C41     C    0.39955   0.36102   0.72696   1.000
    C42     C    0.41455   0.37603   0.70539   1.000
    C43     C    0.40521   0.31679   0.85054   1.000
    C44     C    0.40641   0.31089   0.83104   1.000
    C45     C    0.43068   0.30458   0.81170   1.000
    C46     C    0.20837   0.18594   0.95726   1.000
    C47     C    0.22795   0.18218   0.96494   1.000
    C48     C    0.22390   0.20145   0.97322   1.000
    C49     C    0.26799   0.16297   0.86389   1.000
    C50     C    0.29240   0.15870   0.86360   1.000
    C51     C    0.26152   0.17681   0.84085   1.000
    C52     C    0.27927   0.18675   0.81672   1.000
    C53     C    0.31016   0.16851   0.83943   1.000
    C54     C    0.30374   0.18222   0.81647   1.000
    C55     C    0.32264   0.28425   0.77212   1.000
    C56     C    0.31363   0.27520   0.76276   1.000
    C57     C    0.24194   0.32224   0.89950   1.000
    C58     C    0.24672   0.33972   0.87369   1.000
    C59     C    0.21750   0.31889   0.91423   1.000
    C60     C    0.19747   0.33299   0.90339   1.000
    C61     C    0.22638   0.35438   0.86331   1.000
    C62     C    0.20213   0.35111   0.87794   1.000
    C63     C    0.70539   0.50403   0.41455   1.000
    C64     C    0.85054   0.42746   0.40521   1.000
    H65     H    0.47622   0.40729   0.57747   1.000
    H66     H    0.40917   0.34037   0.73515   1.000
    H67     H    0.43529   0.36649   0.69749   1.000
    H68     H    0.38695   0.32174   0.86577   1.000
    H69     H    0.43236   0.29999   0.79634   1.000
    H70     H    0.21061   0.17176   0.95064   1.000
    H71     H    0.23842   0.19950   0.97918   1.000
    H72     H    0.25374   0.15579   0.88199   1.000
    H73     H    0.24241   0.17998   0.84203   1.000
    H74     H    0.32917   0.16567   0.83819   1.000
    H75     H    0.31797   0.18961   0.79849   1.000
    H76     H    0.34107   0.27242   0.77561   1.000
    H77     H    0.32549   0.25665   0.75951   1.000
    H78     H    0.25730   0.31059   0.90802   1.000
    H79     H    0.21452   0.30483   0.93376   1.000
    H80     H    0.90802   0.52408   0.25730   1.000
    H81     H    0.93376   0.54690   0.21452   1.000
    H82     H    0.84363   0.55895   0.22928   1.000
    H83     H    0.86898   0.58131   0.18711   1.000
    H84     H    0.22928   0.36814   0.84363   1.000
    H85     H    0.18711   0.36260   0.86898   1.000
    C86     C    0.54723   0.56944   0.42240   1.000
    C87     C    0.51247   0.72696   0.36102   1.000
    C88     C    0.50403   0.70539   0.37603   1.000
    C89     C    0.42746   0.85054   0.31679   1.000
    C90     C    0.45167   0.83104   0.31089   1.000
    C91     C    0.45304   0.81170   0.30458   1.000
    C92     C    0.64843   0.95726   0.18594   1.000
    C93     C    0.62494   0.96494   0.18218   1.000
    C94     C    0.60143   0.97322   0.20145   1.000
    C95     C    0.70516   0.86389   0.16297   1.000
    C96     C    0.68530   0.86360   0.15870   1.000
    C97     C    0.72083   0.84085   0.17681   1.000
    C98     C    0.71726   0.81672   0.18675   1.000
    C99     C    0.68190   0.83943   0.16851   1.000
    C100    C    0.69757   0.81647   0.18222   1.000
    C101    C    0.62099   0.77212   0.28425   1.000
    C102    C    0.64841   0.76276   0.27520   1.000
    C103    C    0.53632   0.89950   0.32224   1.000
    C104    C    0.53987   0.87369   0.33972   1.000
    C105    C    0.54938   0.91423   0.31889   1.000
    C106    C    0.56615   0.90339   0.33299   1.000
    C107    C    0.55592   0.86331   0.35438   1.000
    C108    C    0.56881   0.87794   0.35111   1.000
    H109    H    0.53902   0.57747   0.40729   1.000
    H110    H    0.51532   0.73515   0.34037   1.000
    H111    H    0.50073   0.69749   0.36649   1.000
    H112    H    0.42554   0.86577   0.32174   1.000
    H113    H    0.47131   0.79634   0.29999   1.000
    H114    H    0.66698   0.95064   0.17176   1.000
    H115    H    0.58290   0.97918   0.19950   1.000
    H116    H    0.70849   0.88199   0.15579   1.000
    H117    H    0.73557   0.84203   0.17998   1.000
    H118    H    0.66698   0.83819   0.16567   1.000
    H119    H    0.69394   0.79849   0.18961   1.000
    H120    H    0.61090   0.77561   0.27242   1.000
    H121    H    0.65835   0.75951   0.25665   1.000
    H122    H    0.52408   0.90802   0.31059   1.000
    H123    H    0.54690   0.93376   0.30483   1.000
    H124    H    0.55895   0.84363   0.36814   1.000
    H125    H    0.58131   0.86898   0.36260   1.000
    C126    C    0.56944   0.54723   0.46092   1.000
    C127    C    0.72696   0.51247   0.39955   1.000
    C128    C    0.31089   0.45167   0.83104   1.000
    C129    C    0.30458   0.45304   0.81170   1.000
    C130    C    0.18594   0.64843   0.95726   1.000
    C131    C    0.18218   0.62494   0.96494   1.000
    C132    C    0.20145   0.60143   0.97322   1.000
    C133    C    0.83104   0.45167   0.40641   1.000
    C134    C    0.81170   0.45304   0.43068   1.000
    C135    C    0.95726   0.64843   0.20837   1.000
    C136    C    0.96494   0.62494   0.22795   1.000
    C137    C    0.97322   0.60143   0.22390   1.000
    C138    C    0.86389   0.70516   0.26799   1.000
    C139    C    0.86360   0.68530   0.29240   1.000
    C140    C    0.84085   0.72083   0.26152   1.000
    C141    C    0.81672   0.71726   0.27927   1.000
    C142    C    0.83943   0.68190   0.31016   1.000
    C143    C    0.81647   0.69757   0.30374   1.000
    C144    C    0.77212   0.62099   0.32264   1.000
    C145    C    0.76276   0.64841   0.31363   1.000
    C146    C    0.89950   0.53632   0.24194   1.000
    C147    C    0.87369   0.53987   0.24672   1.000
    C148    C    0.91423   0.54938   0.21750   1.000
    C149    C    0.90339   0.56615   0.19747   1.000
    C150    C    0.86331   0.55592   0.22638   1.000
    C151    C    0.87794   0.56881   0.20213   1.000
    H152    H    0.57747   0.53902   0.47622   1.000
    H153    H    0.73515   0.51532   0.40917   1.000
    H154    H    0.69749   0.50073   0.43529   1.000
    H155    H    0.86577   0.42554   0.38695   1.000
    H156    H    0.79634   0.47131   0.43236   1.000
    H157    H    0.95064   0.66698   0.21061   1.000
    H158    H    0.97918   0.58290   0.23842   1.000
    H159    H    0.88199   0.70849   0.25374   1.000
    H160    H    0.84203   0.73557   0.24241   1.000
    H161    H    0.83819   0.66698   0.32917   1.000
    H162    H    0.79849   0.69394   0.31797   1.000
    H163    H    0.77561   0.61090   0.34107   1.000
    H164    H    0.75951   0.65835   0.32549   1.000
    H165    H    0.32917   0.83819   0.66698   1.000
    H166    H    0.31797   0.79849   0.69394   1.000
    H167    H    0.34107   0.77561   0.61090   1.000
    H168    H    0.32549   0.75951   0.65835   1.000
    H169    H    0.25730   0.90802   0.52408   1.000
    H170    H    0.21452   0.93376   0.54690   1.000
    H171    H    0.22928   0.84363   0.55895   1.000
    H172    H    0.18711   0.86898   0.58131   1.000
    C173    C    0.54723   0.42240   0.46092   1.000
    C174    C    0.51247   0.36102   0.39955   1.000
    C175    C    0.50403   0.37603   0.41455   1.000
    C176    C    0.42746   0.31679   0.40521   1.000
    C177    C    0.45167   0.31089   0.40641   1.000
    C178    C    0.45304   0.30458   0.43068   1.000
    C179    C    0.64843   0.18594   0.20837   1.000
    C180    C    0.62494   0.18218   0.22795   1.000
    C181    C    0.60143   0.20145   0.22390   1.000
    C182    C    0.70516   0.16297   0.26799   1.000
    C183    C    0.68530   0.15870   0.29240   1.000
    C184    C    0.72083   0.17681   0.26152   1.000
    C185    C    0.71726   0.18675   0.27927   1.000
    C186    C    0.68190   0.16851   0.31016   1.000
    C187    C    0.69757   0.18222   0.30374   1.000
    C188    C    0.62099   0.28425   0.32264   1.000
    C189    C    0.64841   0.27520   0.31363   1.000
    C190    C    0.53632   0.32224   0.24194   1.000
    C191    C    0.53987   0.33972   0.24672   1.000
    C192    C    0.54938   0.31889   0.21750   1.000
    C193    C    0.56615   0.33299   0.19747   1.000
    C194    C    0.55592   0.35438   0.22638   1.000
    C195    C    0.56881   0.35111   0.20213   1.000
    H196    H    0.53902   0.40729   0.47622   1.000
    H197    H    0.51532   0.34037   0.40917   1.000
    H198    H    0.50073   0.36649   0.43529   1.000
    H199    H    0.42554   0.32174   0.38695   1.000
    H200    H    0.47131   0.29999   0.43236   1.000
    H201    H    0.66698   0.17176   0.21061   1.000
    H202    H    0.58290   0.19950   0.23842   1.000
    H203    H    0.70849   0.15579   0.25374   1.000
    H204    H    0.73557   0.17998   0.24241   1.000
    H205    H    0.66698   0.16567   0.32917   1.000
    H206    H    0.69394   0.18961   0.31797   1.000
    H207    H    0.61090   0.27242   0.34107   1.000
    H208    H    0.65835   0.25665   0.32549   1.000
    H209    H    0.52408   0.31059   0.25730   1.000
    H210    H    0.54690   0.30483   0.21452   1.000
    H211    H    0.55895   0.36814   0.22928   1.000
    H212    H    0.58131   0.36260   0.18711   1.000
    C213    C    0.56944   0.46092   0.42240   1.000
    C214    C    0.72696   0.39955   0.36102   1.000
    C215    C    0.70539   0.41455   0.37603   1.000
    C216    C    0.85054   0.40521   0.31679   1.000
    C217    C    0.83104   0.40641   0.31089   1.000
    C218    C    0.81170   0.43068   0.30458   1.000
    C219    C    0.95726   0.20837   0.18594   1.000
    C220    C    0.96494   0.22795   0.18218   1.000
    C221    C    0.97322   0.22390   0.20145   1.000
    C222    C    0.86389   0.26799   0.16297   1.000
    C223    C    0.86360   0.29240   0.15870   1.000
    C224    C    0.84085   0.26152   0.17681   1.000
    C225    C    0.81672   0.27927   0.18675   1.000
    C226    C    0.83943   0.31016   0.16851   1.000
    C227    C    0.81647   0.30374   0.18222   1.000
    C228    C    0.77212   0.32264   0.28425   1.000
    C229    C    0.76276   0.31363   0.27520   1.000
    C230    C    0.89950   0.24194   0.32224   1.000
    C231    C    0.87369   0.24672   0.33972   1.000
    C232    C    0.91423   0.21750   0.31889   1.000
    C233    C    0.90339   0.19747   0.33299   1.000
    C234    C    0.86331   0.22638   0.35438   1.000
    C235    C    0.87794   0.20213   0.35111   1.000
    H236    H    0.57747   0.47622   0.40729   1.000
    H237    H    0.73515   0.40917   0.34037   1.000
    H238    H    0.69749   0.43529   0.36649   1.000
    H239    H    0.86577   0.38695   0.32174   1.000
    H240    H    0.79634   0.43236   0.29999   1.000
    H241    H    0.95064   0.21061   0.17176   1.000
    H242    H    0.97918   0.23842   0.19950   1.000
    H243    H    0.88199   0.25374   0.15579   1.000
    H244    H    0.84203   0.24241   0.17998   1.000
    H245    H    0.83819   0.32917   0.16567   1.000
    H246    H    0.79849   0.31797   0.18961   1.000
    H247    H    0.77561   0.34107   0.27242   1.000
    H248    H    0.75951   0.32549   0.25665   1.000
    H249    H    0.90802   0.25730   0.31059   1.000
    H250    H    0.93376   0.21452   0.30483   1.000
    H251    H    0.84363   0.22928   0.36814   1.000
    H252    H    0.86898   0.18711   0.36260   1.000
    C253    C    0.42240   0.54723   0.56944   1.000
    C254    C    0.36102   0.51247   0.72696   1.000
    C255    C    0.37603   0.50403   0.70539   1.000
    C256    C    0.31679   0.42746   0.85054   1.000
    C257    C    0.08703   0.98201   0.38611   1.000
    C258    C    0.09130   0.95760   0.38640   1.000
    C259    C    0.07319   0.98848   0.40915   1.000
    C260    C    0.06325   0.97073   0.43328   1.000
    C261    C    0.08149   0.93984   0.41057   1.000
    C262    C    0.06778   0.94626   0.43353   1.000
    C263    C    0.96575   0.92736   0.47788   1.000
    C264    C    0.97480   0.93637   0.48724   1.000
    C265    C    0.92776   0.00806   0.35050   1.000
    C266    C    0.16297   0.70516   0.86389   1.000
    C267    C    0.15870   0.68530   0.86360   1.000
    C268    C    0.17681   0.72083   0.84085   1.000
    C269    C    0.18675   0.71726   0.81672   1.000
    C270    C    0.16851   0.68190   0.83943   1.000
    C271    C    0.18222   0.69757   0.81647   1.000
    C272    C    0.28425   0.62099   0.77212   1.000
    C273    C    0.27520   0.64841   0.76276   1.000
    C274    C    0.32224   0.53632   0.89950   1.000
    C275    C    0.33972   0.53987   0.87369   1.000
    C276    C    0.31889   0.54938   0.91423   1.000
    C277    C    0.33299   0.56615   0.90339   1.000
    C278    C    0.35438   0.55592   0.86331   1.000
    C279    C    0.35111   0.56881   0.87794   1.000
    H280    H    0.40729   0.53902   0.57747   1.000
    H281    H    0.34037   0.51532   0.73515   1.000
    H282    H    0.36649   0.50073   0.69749   1.000
    H283    H    0.32174   0.42554   0.86577   1.000
    H284    H    0.29999   0.47131   0.79634   1.000
    H285    H    0.17176   0.66698   0.95064   1.000
    H286    H    0.19950   0.58290   0.97918   1.000
    H287    H    0.15579   0.70849   0.88199   1.000
    H288    H    0.17998   0.73557   0.84203   1.000
    H289    H    0.16567   0.66698   0.83819   1.000
    H290    H    0.18961   0.69394   0.79849   1.000
    H291    H    0.27242   0.61090   0.77561   1.000
    H292    H    0.25665   0.65835   0.75951   1.000
    H293    H    0.31059   0.52408   0.90802   1.000
    H294    H    0.30483   0.54690   0.93376   1.000
    H295    H    0.36814   0.55895   0.84363   1.000
    H296    H    0.36260   0.58131   0.86898   1.000
    C297    C    0.46092   0.56944   0.54723   1.000
    C298    C    0.39955   0.72696   0.51247   1.000
    C299    C    0.41455   0.70539   0.50403   1.000
    C300    C    0.40521   0.85054   0.42746   1.000
    C301    C    0.40641   0.83104   0.45167   1.000
    C302    C    0.43068   0.81170   0.45304   1.000
    C303    C    0.20837   0.95726   0.64843   1.000
    C304    C    0.22795   0.96494   0.62494   1.000
    C305    C    0.22390   0.97322   0.60143   1.000
    C306    C    0.26799   0.86389   0.70516   1.000
    C307    C    0.29240   0.86360   0.68530   1.000
    C308    C    0.26152   0.84085   0.72083   1.000
    C309    C    0.27927   0.81672   0.71726   1.000
    C310    C    0.31016   0.83943   0.68190   1.000
    C311    C    0.30374   0.81647   0.69757   1.000
    C312    C    0.32264   0.77212   0.62099   1.000
    C313    C    0.31363   0.76276   0.64841   1.000
    C314    C    0.24194   0.89950   0.53632   1.000
    C315    C    0.24672   0.87369   0.53987   1.000
    C316    C    0.21750   0.91423   0.54938   1.000
    C317    C    0.19747   0.90339   0.56615   1.000
    C318    C    0.22638   0.86331   0.55592   1.000
    C319    C    0.20213   0.87794   0.56881   1.000
    H320    H    0.47622   0.57747   0.53902   1.000
    H321    H    0.40917   0.73515   0.51532   1.000
    H322    H    0.43529   0.69749   0.50073   1.000
    H323    H    0.38695   0.86577   0.42554   1.000
    H324    H    0.43236   0.79634   0.47131   1.000
    H325    H    0.21061   0.95064   0.66698   1.000
    H326    H    0.23842   0.97918   0.58290   1.000
    H327    H    0.25374   0.88199   0.70849   1.000
    H328    H    0.24241   0.84203   0.73557   1.000
    H329    H    0.51485   0.73468   0.90963   1.000
    H330    H    0.55251   0.74927   0.88351   1.000
    H331    H    0.38423   0.82446   0.92826   1.000
    H332    H    0.45366   0.77869   0.95001   1.000
    H333    H    0.29936   0.58302   0.07824   1.000
    H334    H    0.27082   0.66710   0.05050   1.000
    H335    H    0.36801   0.54151   0.09421   1.000
    H336    H    0.40797   0.51443   0.07002   1.000
    H337    H    0.41181   0.58302   0.08433   1.000
    H338    H    0.45151   0.55606   0.06039   1.000
    H339    H    0.47439   0.63910   0.97758   1.000
    H340    H    0.49049   0.59165   0.99335   1.000
    H341    H    0.34198   0.72592   0.93941   1.000
    H342    H    0.31624   0.70310   0.94517   1.000
    H343    H    0.40637   0.69105   0.88186   1.000
    H344    H    0.38102   0.66869   0.88740   1.000
    C345    C    0.46092   0.54723   0.42240   1.000
    C346    C    0.39955   0.51247   0.36102   1.000
    C347    C    0.41455   0.50403   0.37603   1.000
    C348    C    0.40521   0.42746   0.31679   1.000
    C349    C    0.40641   0.45167   0.31089   1.000
    C350    C    0.43068   0.45304   0.30458   1.000
    C351    C    0.20837   0.64843   0.18594   1.000
    C352    C    0.22795   0.62494   0.18218   1.000
    C353    C    0.22390   0.60143   0.20145   1.000
    C354    C    0.26799   0.70516   0.16297   1.000
    C355    C    0.29240   0.68530   0.15870   1.000
    C356    C    0.26152   0.72083   0.17681   1.000
    C357    C    0.27927   0.71726   0.18675   1.000
    C358    C    0.31016   0.68190   0.16851   1.000
    C359    C    0.30374   0.69757   0.18222   1.000
    C360    C    0.32264   0.62099   0.28425   1.000
    C361    C    0.31363   0.64841   0.27520   1.000
    C362    C    0.24194   0.53632   0.32224   1.000
    C363    C    0.24672   0.53987   0.33972   1.000
    C364    C    0.21750   0.54938   0.31889   1.000
    C365    C    0.19747   0.56615   0.33299   1.000
    C366    C    0.22638   0.55592   0.35438   1.000
    C367    C    0.20213   0.56881   0.35111   1.000
    H368    H    0.47622   0.53902   0.40729   1.000
    H369    H    0.40917   0.51532   0.34037   1.000
    H370    H    0.43529   0.50073   0.36649   1.000
    H371    H    0.38695   0.42554   0.32174   1.000
    H372    H    0.43236   0.47131   0.29999   1.000
    H373    H    0.21061   0.66698   0.17176   1.000
    H374    H    0.23842   0.58290   0.19950   1.000
    H375    H    0.25374   0.70849   0.15579   1.000
    H376    H    0.24241   0.73557   0.17998   1.000
    H377    H    0.32917   0.66698   0.16567   1.000
    H378    H    0.31797   0.69394   0.18961   1.000
    H379    H    0.34107   0.61090   0.27242   1.000
    H380    H    0.32549   0.65835   0.25665   1.000
    H381    H    0.25730   0.52408   0.31059   1.000
    H382    H    0.21452   0.54690   0.30483   1.000
    H383    H    0.22928   0.55895   0.36814   1.000
    H384    H    0.18711   0.58131   0.36260   1.000
    C385    C    0.42240   0.56944   0.46092   1.000
    C386    C    0.36102   0.72696   0.39955   1.000
    C387    C    0.37603   0.70539   0.41455   1.000
    C388    C    0.31679   0.85054   0.40521   1.000
    C389    C    0.31089   0.83104   0.40641   1.000
    C390    C    0.30458   0.81170   0.43068   1.000
    C391    C    0.18594   0.95726   0.20837   1.000
    C392    C    0.18218   0.96494   0.22795   1.000
    C393    C    0.20145   0.97322   0.22390   1.000
    C394    C    0.16297   0.86389   0.26799   1.000
    C395    C    0.15870   0.86360   0.29240   1.000
    C396    C    0.17681   0.84085   0.26152   1.000
    C397    C    0.18675   0.81672   0.27927   1.000
    C398    C    0.16851   0.83943   0.31016   1.000
    C399    C    0.18222   0.81647   0.30374   1.000
    C400    C    0.28425   0.77212   0.32264   1.000
    C401    C    0.27520   0.76276   0.31363   1.000
    C402    C    0.32224   0.89950   0.24194   1.000
    C403    C    0.33972   0.87369   0.24672   1.000
    C404    C    0.31889   0.91423   0.21750   1.000
    C405    C    0.33299   0.90339   0.19747   1.000
    C406    C    0.35438   0.86331   0.22638   1.000
    C407    C    0.35111   0.87794   0.20213   1.000
    H408    H    0.40729   0.57747   0.47622   1.000
    H409    H    0.34037   0.73515   0.40917   1.000
    H410    H    0.36649   0.69749   0.43529   1.000
    H411    H    0.32174   0.86577   0.38695   1.000
    H412    H    0.29999   0.79634   0.43236   1.000
    H413    H    0.17176   0.95064   0.21061   1.000
    H414    H    0.19950   0.97918   0.23842   1.000
    H415    H    0.15579   0.88199   0.25374   1.000
    H416    H    0.17998   0.84203   0.24241   1.000
    H417    H    0.16567   0.83819   0.32917   1.000
    H418    H    0.18961   0.79849   0.31797   1.000
    H419    H    0.27242   0.77561   0.34107   1.000
    H420    H    0.25665   0.75951   0.32549   1.000
    H421    H    0.31059   0.90802   0.25730   1.000
    H422    H    0.30483   0.93376   0.21452   1.000
    H423    H    0.36814   0.84363   0.22928   1.000
    H424    H    0.36260   0.86898   0.18711   1.000
    C425    C    0.56944   0.42240   0.54723   1.000
    C426    C    0.72696   0.36102   0.51247   1.000
    C427    C    0.70539   0.37603   0.50403   1.000
    C428    C    0.85054   0.31679   0.42746   1.000
    C429    C    0.83104   0.31089   0.45167   1.000
    C430    C    0.81170   0.30458   0.45304   1.000
    C431    C    0.95726   0.18594   0.64843   1.000
    C432    C    0.96494   0.18218   0.62494   1.000
    C433    C    0.97322   0.20145   0.60143   1.000
    C434    C    0.86389   0.16297   0.70516   1.000
    C435    C    0.86360   0.15870   0.68530   1.000
    C436    C    0.84085   0.17681   0.72083   1.000
    C437    C    0.81672   0.18675   0.71726   1.000
    C438    C    0.83943   0.16851   0.68190   1.000
    C439    C    0.81647   0.18222   0.69757   1.000
    C440    C    0.77212   0.28425   0.62099   1.000
    C441    C    0.76276   0.27520   0.64841   1.000
    C442    C    0.89950   0.32224   0.53632   1.000
    C443    C    0.87369   0.33972   0.53987   1.000
    C444    C    0.91423   0.31889   0.54938   1.000
    C445    C    0.90339   0.33299   0.56615   1.000
    C446    C    0.86331   0.35438   0.55592   1.000
    C447    C    0.87794   0.35111   0.56881   1.000
    H448    H    0.57747   0.40729   0.53902   1.000
    H449    H    0.73515   0.34037   0.51532   1.000
    H450    H    0.69749   0.36649   0.50073   1.000
    H451    H    0.86577   0.32174   0.42554   1.000
    H452    H    0.79634   0.29999   0.47131   1.000
    H453    H    0.95064   0.17176   0.66698   1.000
    H454    H    0.97918   0.19950   0.58290   1.000
    H455    H    0.88199   0.15579   0.70849   1.000
    H456    H    0.84203   0.17998   0.73557   1.000
    H457    H    0.83819   0.16567   0.66698   1.000
    H458    H    0.79849   0.18961   0.69394   1.000
    H459    H    0.77561   0.27242   0.61090   1.000
    H460    H    0.75951   0.25665   0.65835   1.000
    H461    H    0.90802   0.31059   0.52408   1.000
    H462    H    0.93376   0.30483   0.54690   1.000
    H463    H    0.84363   0.36814   0.55895   1.000
    H464    H    0.86898   0.36260   0.58131   1.000
    C465    C    0.54723   0.46092   0.56944   1.000
    C466    C    0.51247   0.39955   0.72696   1.000
    C467    C    0.50403   0.41455   0.70539   1.000
    C468    C    0.42746   0.40521   0.85054   1.000
    C469    C    0.45167   0.40641   0.83104   1.000
    C470    C    0.45304   0.43068   0.81170   1.000
    C471    C    0.64843   0.20837   0.95726   1.000
    C472    C    0.62494   0.22795   0.96494   1.000
    C473    C    0.60143   0.22390   0.97322   1.000
    C474    C    0.70516   0.26799   0.86389   1.000
    C475    C    0.68530   0.29240   0.86360   1.000
    C476    C    0.72083   0.26152   0.84085   1.000
    C477    C    0.71726   0.27927   0.81672   1.000
    C478    C    0.68190   0.31016   0.83943   1.000
    C479    C    0.69757   0.30374   0.81647   1.000
    C480    C    0.62099   0.32264   0.77212   1.000
    C481    C    0.64841   0.31363   0.76276   1.000
    C482    C    0.53632   0.24194   0.89950   1.000
    C483    C    0.53987   0.24672   0.87369   1.000
    C484    C    0.54938   0.21750   0.91423   1.000
    C485    C    0.56615   0.19747   0.90339   1.000
    C486    C    0.55592   0.22638   0.86331   1.000
    C487    C    0.56881   0.20213   0.87794   1.000
    H488    H    0.53902   0.47622   0.57747   1.000
    H489    H    0.51532   0.40917   0.73515   1.000
    H490    H    0.50073   0.43529   0.69749   1.000
    H491    H    0.42554   0.38695   0.86577   1.000
    H492    H    0.47131   0.43236   0.79634   1.000
    H493    H    0.66698   0.21061   0.95064   1.000
    H494    H    0.58290   0.23842   0.97918   1.000
    H495    H    0.70849   0.25374   0.88199   1.000
    H496    H    0.73557   0.24241   0.84203   1.000
    H497    H    0.66698   0.32917   0.83819   1.000
    H498    H    0.69394   0.31797   0.79849   1.000
    H499    H    0.61090   0.34107   0.77561   1.000
    H500    H    0.65835   0.32549   0.75951   1.000
    H501    H    0.52408   0.25730   0.90802   1.000
    H502    H    0.54690   0.21452   0.93376   1.000
    H503    H    0.55895   0.22928   0.84363   1.000
    H504    H    0.58131   0.18711   0.86898   1.000
    C505    C    0.82760   0.78908   0.68056   1.000
    C506    C    0.88898   0.85045   0.52304   1.000
    C507    C    0.87397   0.83545   0.54461   1.000
    C508    C    0.93321   0.84479   0.39946   1.000
    C509    C    0.93911   0.84359   0.41896   1.000
    C510    C    0.94542   0.81932   0.43830   1.000
    C511    C    0.06406   0.04163   0.29274   1.000
    C512    C    0.06782   0.02205   0.28506   1.000
    C513    C    0.04855   0.02610   0.27678   1.000
    C514    C    0.91028   0.00328   0.71013   1.000
    C515    C    0.93111   0.03250   0.70062   1.000
    C516    C    0.91701   0.05253   0.68385   1.000
    C517    C    0.89562   0.02362   0.69408   1.000
    C518    C    0.89889   0.04787   0.68119   1.000
    H519    H    0.84271   0.77378   0.71098   1.000
    C520    C    0.91028   0.00328   0.37631   1.000
    C521    C    0.93111   0.03250   0.33577   1.000
    C522    C    0.91701   0.05253   0.34661   1.000
    C523    C    0.89562   0.02362   0.38669   1.000
    C524    C    0.89889   0.04787   0.37206   1.000
    H525    H    0.84271   0.77378   0.67253   1.000
    H526    H    0.90963   0.84083   0.51485   1.000
    H527    H    0.88351   0.81471   0.55251   1.000
    H528    H    0.92826   0.86305   0.38423   1.000
    H529    H    0.95001   0.81764   0.45366   1.000
    H530    H    0.07824   0.03939   0.29936   1.000
    H531    H    0.05050   0.01158   0.27082   1.000
    H532    H    0.09421   0.99626   0.36801   1.000
    H533    H    0.07002   0.00759   0.40797   1.000
    H534    H    0.08433   0.92083   0.41181   1.000
    H535    H    0.06039   0.93203   0.45151   1.000
    H536    H    0.97758   0.90893   0.47439   1.000
    H537    H    0.99335   0.92451   0.49049   1.000
    H538    H    0.93941   0.99270   0.34198   1.000
    H539    H    0.94517   0.03548   0.31624   1.000
    H540    H    0.88186   0.02072   0.40637   1.000
    H541    H    0.88740   0.06289   0.38102   1.000
    C542    C    0.78908   0.82760   0.70277   1.000
    C543    C    0.85045   0.88898   0.73753   1.000
    C544    C    0.83545   0.87397   0.74597   1.000
    C545    C    0.84479   0.93321   0.82254   1.000
    C546    C    0.84359   0.93911   0.79833   1.000
    C547    C    0.81932   0.94542   0.79696   1.000
    C548    C    0.04163   0.06406   0.60157   1.000
    C549    C    0.02205   0.06782   0.62506   1.000
    C550    C    0.02610   0.04855   0.64857   1.000
    C551    C    0.98201   0.08703   0.54484   1.000
    C552    C    0.95760   0.09130   0.56470   1.000
    C553    C    0.98848   0.07319   0.52917   1.000
    C554    C    0.97073   0.06325   0.53274   1.000
    C555    C    0.93984   0.08149   0.56810   1.000
    C556    C    0.94626   0.06778   0.55243   1.000
    C557    C    0.92736   0.96575   0.62901   1.000
    C558    C    0.93637   0.97480   0.60159   1.000
    C559    C    0.00806   0.92776   0.71368   1.000
    C560    C    0.00328   0.91028   0.71013   1.000
    C561    C    0.03250   0.93111   0.70062   1.000
    C562    C    0.05253   0.91701   0.68385   1.000
    C563    C    0.02362   0.89562   0.69408   1.000
    C564    C    0.04787   0.89889   0.68119   1.000
    H565    H    0.77378   0.84271   0.71098   1.000
    H566    H    0.84083   0.90963   0.73468   1.000
    H567    H    0.81471   0.88351   0.74927   1.000
    H568    H    0.86305   0.92826   0.82446   1.000
    H569    H    0.81764   0.95001   0.77869   1.000
    H570    H    0.03939   0.07824   0.58302   1.000
    H571    H    0.01158   0.05050   0.66710   1.000
    H572    H    0.99626   0.09421   0.54151   1.000
    H573    H    0.00759   0.07002   0.51443   1.000
    H574    H    0.92083   0.08433   0.58302   1.000
    H575    H    0.93203   0.06039   0.55606   1.000
    H576    H    0.90893   0.97758   0.63910   1.000
    H577    H    0.92451   0.99335   0.59165   1.000
    H578    H    0.99270   0.93941   0.72592   1.000
    H579    H    0.03548   0.94517   0.70310   1.000
    H580    H    0.02072   0.88186   0.69105   1.000
    H581    H    0.06289   0.88740   0.66869   1.000
    C582    C    0.70277   0.68056   0.78908   1.000
    C583    C    0.73753   0.52304   0.85045   1.000
    C584    C    0.74597   0.54461   0.83545   1.000
    C585    C    0.82254   0.39946   0.84479   1.000
    C586    C    0.79833   0.41896   0.84359   1.000
    C587    C    0.79696   0.43830   0.81932   1.000
    C588    C    0.60157   0.29274   0.04163   1.000
    C589    C    0.62506   0.28506   0.02205   1.000
    C590    C    0.64857   0.27678   0.02610   1.000
    C591    C    0.54484   0.38611   0.98201   1.000
    C592    C    0.56470   0.38640   0.95760   1.000
    C593    C    0.52917   0.40915   0.98848   1.000
    C594    C    0.53274   0.43328   0.97073   1.000
    C595    C    0.56810   0.41057   0.93984   1.000
    C596    C    0.55243   0.43353   0.94626   1.000
    C597    C    0.62901   0.47788   0.92736   1.000
    C598    C    0.60159   0.48724   0.93637   1.000
    C599    C    0.71368   0.35050   0.00806   1.000
    C600    C    0.71013   0.37631   0.00328   1.000
    C601    C    0.70062   0.33577   0.03250   1.000
    C602    C    0.68385   0.34661   0.05253   1.000
    C603    C    0.69408   0.38669   0.02362   1.000
    C604    C    0.68119   0.37206   0.04787   1.000
    H605    H    0.71098   0.67253   0.77378   1.000
    H606    H    0.73468   0.51485   0.84083   1.000
    H607    H    0.74927   0.55251   0.81471   1.000
    H608    H    0.82446   0.38423   0.86305   1.000
    H609    H    0.77869   0.45366   0.81764   1.000
    H610    H    0.58302   0.29936   0.03939   1.000
    H611    H    0.66710   0.27082   0.01158   1.000
    H612    H    0.54151   0.36801   0.99626   1.000
    H613    H    0.51443   0.40797   0.00759   1.000
    H614    H    0.58302   0.41181   0.92083   1.000
    H615    H    0.55606   0.45151   0.93203   1.000
    H616    H    0.63910   0.47439   0.90893   1.000
    H617    H    0.59165   0.49049   0.92451   1.000
    H618    H    0.72592   0.34198   0.99270   1.000
    H619    H    0.70310   0.31624   0.03548   1.000
    H620    H    0.69105   0.40637   0.02072   1.000
    H621    H    0.66869   0.38102   0.06289   1.000
    C622    C    0.68056   0.70277   0.82760   1.000
    C623    C    0.52304   0.73753   0.88898   1.000
    C624    C    0.54461   0.74597   0.87397   1.000
    C625    C    0.39946   0.82254   0.93321   1.000
    C626    C    0.41896   0.79833   0.93911   1.000
    C627    C    0.43830   0.79696   0.94542   1.000
    C628    C    0.29274   0.60157   0.06406   1.000
    C629    C    0.28506   0.62506   0.06782   1.000
    C630    C    0.27678   0.64857   0.04855   1.000
    C631    C    0.38611   0.54484   0.08703   1.000
    C632    C    0.38640   0.56470   0.09130   1.000
    C633    C    0.40915   0.52917   0.07319   1.000
    C634    C    0.43328   0.53274   0.06325   1.000
    C635    C    0.41057   0.56810   0.08149   1.000
    C636    C    0.43353   0.55243   0.06778   1.000
    C637    C    0.47788   0.62901   0.96575   1.000
    C638    C    0.48724   0.60159   0.97480   1.000
    C639    C    0.35050   0.71368   0.92776   1.000
    C640    C    0.37631   0.71013   0.91028   1.000
    C641    C    0.33577   0.70062   0.93111   1.000
    C642    C    0.34661   0.68385   0.91701   1.000
    C643    C    0.38669   0.69408   0.89562   1.000
    C644    C    0.37206   0.68119   0.89889   1.000
    H645    H    0.67253   0.71098   0.84271   1.000
    H646    H    0.77378   0.67253   0.71098   1.000
    H647    H    0.84083   0.51485   0.73468   1.000
    H648    H    0.81471   0.55251   0.74927   1.000
    H649    H    0.86305   0.38423   0.82446   1.000
    H650    H    0.81764   0.45366   0.77869   1.000
    H651    H    0.03939   0.29936   0.58302   1.000
    H652    H    0.01158   0.27082   0.66710   1.000
    H653    H    0.99626   0.36801   0.54151   1.000
    H654    H    0.00759   0.40797   0.51443   1.000
    H655    H    0.92083   0.41181   0.58302   1.000
    H656    H    0.93203   0.45151   0.55606   1.000
    H657    H    0.90893   0.47439   0.63910   1.000
    H658    H    0.92451   0.49049   0.59165   1.000
    H659    H    0.99270   0.34198   0.72592   1.000
    H660    H    0.03548   0.31624   0.70310   1.000
    H661    H    0.02072   0.40637   0.69105   1.000
    H662    H    0.06289   0.38102   0.66869   1.000
    C663    C    0.70277   0.82760   0.68056   1.000
    C664    C    0.73753   0.88898   0.52304   1.000
    C665    C    0.74597   0.87397   0.54461   1.000
    C666    C    0.82254   0.93321   0.39946   1.000
    C667    C    0.79833   0.93911   0.41896   1.000
    C668    C    0.79696   0.94542   0.43830   1.000
    C669    C    0.60157   0.06406   0.29274   1.000
    C670    C    0.62506   0.06782   0.28506   1.000
    C671    C    0.64857   0.04855   0.27678   1.000
    C672    C    0.54484   0.08703   0.38611   1.000
    C673    C    0.56470   0.09130   0.38640   1.000
    C674    C    0.52917   0.07319   0.40915   1.000
    C675    C    0.53274   0.06325   0.43328   1.000
    C676    C    0.56810   0.08149   0.41057   1.000
    C677    C    0.55243   0.06778   0.43353   1.000
    C678    C    0.62901   0.96575   0.47788   1.000
    C679    C    0.60159   0.97480   0.48724   1.000
    C680    C    0.71368   0.92776   0.35050   1.000
    C681    C    0.71013   0.91028   0.37631   1.000
    C682    C    0.70062   0.93111   0.33577   1.000
    C683    C    0.68385   0.91701   0.34661   1.000
    C684    C    0.69408   0.89562   0.38669   1.000
    C685    C    0.68119   0.89889   0.37206   1.000
    H686    H    0.71098   0.84271   0.67253   1.000
    H687    H    0.73468   0.90963   0.51485   1.000
    H688    H    0.74927   0.88351   0.55251   1.000
    H689    H    0.82446   0.92826   0.38423   1.000
    H690    H    0.77869   0.95001   0.45366   1.000
    H691    H    0.58302   0.07824   0.29936   1.000
    H692    H    0.66710   0.05050   0.27082   1.000
    H693    H    0.54151   0.09421   0.36801   1.000
    H694    H    0.51443   0.07002   0.40797   1.000
    H695    H    0.58302   0.08433   0.41181   1.000
    H696    H    0.55606   0.06039   0.45151   1.000
    H697    H    0.63910   0.97758   0.47439   1.000
    H698    H    0.59165   0.99335   0.49049   1.000
    H699    H    0.72592   0.93941   0.34198   1.000
    H700    H    0.70310   0.94517   0.31624   1.000
    H701    H    0.69105   0.88186   0.40637   1.000
    H702    H    0.66869   0.88740   0.38102   1.000
    C703    C    0.68056   0.78908   0.70277   1.000
    C704    C    0.52304   0.85045   0.73753   1.000
    C705    C    0.54461   0.83545   0.74597   1.000
    C706    C    0.39946   0.84479   0.82254   1.000
    C707    C    0.41896   0.84359   0.79833   1.000
    C708    C    0.43830   0.81932   0.79696   1.000
    C709    C    0.29274   0.04163   0.60157   1.000
    C710    C    0.28506   0.02205   0.62506   1.000
    C711    C    0.27678   0.02610   0.64857   1.000
    C712    C    0.38611   0.98201   0.54484   1.000
    C713    C    0.38640   0.95760   0.56470   1.000
    C714    C    0.40915   0.98848   0.52917   1.000
    C715    C    0.43328   0.97073   0.53274   1.000
    C716    C    0.41057   0.93984   0.56810   1.000
    C717    C    0.43353   0.94626   0.55243   1.000
    C718    C    0.47788   0.92736   0.62901   1.000
    C719    C    0.48724   0.93637   0.60159   1.000
    C720    C    0.35050   0.00806   0.71368   1.000
    C721    C    0.37631   0.00328   0.71013   1.000
    C722    C    0.33577   0.03250   0.70062   1.000
    C723    C    0.34661   0.05253   0.68385   1.000
    C724    C    0.38669   0.02362   0.69408   1.000
    C725    C    0.37206   0.04787   0.68119   1.000
    H726    H    0.67253   0.77378   0.71098   1.000
    H727    H    0.51485   0.84083   0.73468   1.000
    H728    H    0.55251   0.81471   0.74927   1.000
    H729    H    0.38423   0.86305   0.82446   1.000
    H730    H    0.45366   0.81764   0.77869   1.000
    H731    H    0.29936   0.03939   0.58302   1.000
    H732    H    0.27082   0.01158   0.66710   1.000
    H733    H    0.36801   0.99626   0.54151   1.000
    H734    H    0.40797   0.00759   0.51443   1.000
    H735    H    0.41181   0.92083   0.58302   1.000
    H736    H    0.45151   0.93203   0.55606   1.000
    H737    H    0.47439   0.90893   0.63910   1.000
    H738    H    0.49049   0.92451   0.59165   1.000
    H739    H    0.34198   0.99270   0.72592   1.000
    H740    H    0.31624   0.03548   0.70310   1.000
    H741    H    0.40637   0.02072   0.69105   1.000
    H742    H    0.38102   0.06289   0.66869   1.000
    C743    C    0.82760   0.70277   0.78908   1.000
    C744    C    0.88898   0.73753   0.85045   1.000
    C745    C    0.87397   0.74597   0.83545   1.000
    C746    C    0.93321   0.82254   0.84479   1.000
    C747    C    0.93911   0.79833   0.84359   1.000
    C748    C    0.94542   0.79696   0.81932   1.000
    C749    C    0.06406   0.60157   0.04163   1.000
    C750    C    0.06782   0.62506   0.02205   1.000
    C751    C    0.04855   0.64857   0.02610   1.000
    C752    C    0.08703   0.54484   0.98201   1.000
    C753    C    0.09130   0.56470   0.95760   1.000
    C754    C    0.07319   0.52917   0.98848   1.000
    C755    C    0.06325   0.53274   0.97073   1.000
    C756    C    0.08149   0.56810   0.93984   1.000
    C757    C    0.06778   0.55243   0.94626   1.000
    C758    C    0.96575   0.62901   0.92736   1.000
    C759    C    0.97480   0.60159   0.93637   1.000
    C760    C    0.92776   0.71368   0.00806   1.000
    C761    C    0.91028   0.71013   0.00328   1.000
    C762    C    0.93111   0.70062   0.03250   1.000
    C763    C    0.91701   0.68385   0.05253   1.000
    C764    C    0.89562   0.69408   0.02362   1.000
    C765    C    0.89889   0.68119   0.04787   1.000
    H766    H    0.84271   0.71098   0.77378   1.000
    H767    H    0.90963   0.73468   0.84083   1.000
    H768    H    0.88351   0.74927   0.81471   1.000
    H769    H    0.92826   0.82446   0.86305   1.000
    H770    H    0.95001   0.77869   0.81764   1.000
    H771    H    0.07824   0.58302   0.03939   1.000
    H772    H    0.05050   0.66710   0.01158   1.000
    H773    H    0.09421   0.54151   0.99626   1.000
    H774    H    0.07002   0.51443   0.00759   1.000
    H775    H    0.08433   0.58302   0.92083   1.000
    H776    H    0.06039   0.55606   0.93203   1.000
    H777    H    0.97758   0.63910   0.90893   1.000
    H778    H    0.99335   0.59165   0.92451   1.000
    H779    H    0.93941   0.72592   0.99270   1.000
    H780    H    0.94517   0.70310   0.03548   1.000
    H781    H    0.88186   0.69105   0.02072   1.000
    H782    H    0.88740   0.66869   0.06289   1.000
    C783    C    0.78908   0.68056   0.82760   1.000
    C784    C    0.85045   0.52304   0.88898   1.000
    C785    C    0.83545   0.54461   0.87397   1.000
    C786    C    0.84479   0.39946   0.93321   1.000
    C787    C    0.84359   0.41896   0.93911   1.000
    C788    C    0.81932   0.43830   0.94542   1.000
    C789    C    0.04163   0.29274   0.06406   1.000
    C790    C    0.02205   0.28506   0.06782   1.000
    C791    C    0.02610   0.27678   0.04855   1.000
    C792    C    0.98201   0.38611   0.08703   1.000
    C793    C    0.95760   0.38640   0.09130   1.000
    C794    C    0.98848   0.40915   0.07319   1.000
    C795    C    0.97073   0.43328   0.06325   1.000
    C796    C    0.93984   0.41057   0.08149   1.000
    C797    C    0.94626   0.43353   0.06778   1.000
    C798    C    0.92736   0.47788   0.96575   1.000
    C799    C    0.93637   0.48724   0.97480   1.000
    C800    C    0.00806   0.35050   0.92776   1.000
    C801    C    0.00328   0.37631   0.91028   1.000
    C802    C    0.03250   0.33577   0.93111   1.000
    C803    C    0.05253   0.34661   0.91701   1.000
    C804    C    0.02362   0.38669   0.89562   1.000
    C805    C    0.04787   0.37206   0.89889   1.000
    H806    H    0.77378   0.67253   0.84271   1.000
    H807    H    0.84083   0.51485   0.90963   1.000
    H808    H    0.81471   0.55251   0.88351   1.000
    H809    H    0.86305   0.38423   0.92826   1.000
    H810    H    0.81764   0.45366   0.95001   1.000
    H811    H    0.03939   0.29936   0.07824   1.000
    H812    H    0.01158   0.27082   0.05050   1.000
    H813    H    0.99626   0.36801   0.09421   1.000
    H814    H    0.00759   0.40797   0.07002   1.000
    H815    H    0.92083   0.41181   0.08433   1.000
    H816    H    0.93203   0.45151   0.06039   1.000
    H817    H    0.90893   0.47439   0.97758   1.000
    H818    H    0.92451   0.49049   0.99335   1.000
    H819    H    0.99270   0.34198   0.93941   1.000
    H820    H    0.03548   0.31624   0.94517   1.000
    H821    H    0.02072   0.40637   0.88186   1.000
    H822    H    0.06289   0.38102   0.88740   1.000
    C823    C    0.78908   0.70277   0.68056   1.000
    C824    C    0.85045   0.73753   0.52304   1.000
    C825    C    0.83545   0.74597   0.54461   1.000
    C826    C    0.84479   0.82254   0.39946   1.000
    C827    C    0.84359   0.79833   0.41896   1.000
    C828    C    0.81932   0.79696   0.43830   1.000
    C829    C    0.04163   0.60157   0.29274   1.000
    C830    C    0.02205   0.62506   0.28506   1.000
    C831    C    0.02610   0.64857   0.27678   1.000
    C832    C    0.98201   0.54484   0.38611   1.000
    C833    C    0.95760   0.56470   0.38640   1.000
    C834    C    0.98848   0.52917   0.40915   1.000
    C835    C    0.97073   0.53274   0.43328   1.000
    C836    C    0.93984   0.56810   0.41057   1.000
    C837    C    0.94626   0.55243   0.43353   1.000
    C838    C    0.92736   0.62901   0.47788   1.000
    C839    C    0.93637   0.60159   0.48724   1.000
    C840    C    0.00806   0.71368   0.35050   1.000
    C841    C    0.00328   0.71013   0.37631   1.000
    C842    C    0.03250   0.70062   0.33577   1.000
    C843    C    0.05253   0.68385   0.34661   1.000
    C844    C    0.02362   0.69408   0.38669   1.000
    C845    C    0.04787   0.68119   0.37206   1.000
    H846    H    0.77378   0.71098   0.67253   1.000
    H847    H    0.84083   0.73468   0.51485   1.000
    H848    H    0.81471   0.74927   0.55251   1.000
    H849    H    0.86305   0.82446   0.38423   1.000
    H850    H    0.81764   0.77869   0.45366   1.000
    H851    H    0.03939   0.58302   0.29936   1.000
    H852    H    0.01158   0.66710   0.27082   1.000
    H853    H    0.99626   0.54151   0.36801   1.000
    H854    H    0.00759   0.51443   0.40797   1.000
    H855    H    0.92083   0.58302   0.41181   1.000
    H856    H    0.93203   0.55606   0.45151   1.000
    H857    H    0.90893   0.63910   0.47439   1.000
    H858    H    0.92451   0.59165   0.49049   1.000
    H859    H    0.99270   0.72592   0.34198   1.000
    H860    H    0.03548   0.70310   0.31624   1.000
    H861    H    0.02072   0.69105   0.40637   1.000
    H862    H    0.06289   0.66869   0.38102   1.000
    C863    C    0.82760   0.68056   0.70277   1.000
    C864    C    0.88898   0.52304   0.73753   1.000
    C865    C    0.87397   0.54461   0.74597   1.000
    C866    C    0.93321   0.39946   0.82254   1.000
    C867    C    0.93911   0.41896   0.79833   1.000
    C868    C    0.94542   0.43830   0.79696   1.000
    C869    C    0.06406   0.29274   0.60157   1.000
    C870    C    0.06782   0.28506   0.62506   1.000
    C871    C    0.04855   0.27678   0.64857   1.000
    C872    C    0.08703   0.38611   0.54484   1.000
    C873    C    0.09130   0.38640   0.56470   1.000
    C874    C    0.07319   0.40915   0.52917   1.000
    C875    C    0.06325   0.43328   0.53274   1.000
    C876    C    0.08149   0.41057   0.56810   1.000
    C877    C    0.06778   0.43353   0.55243   1.000
    C878    C    0.96575   0.47788   0.62901   1.000
    C879    C    0.97480   0.48724   0.60159   1.000
    C880    C    0.92776   0.35050   0.71368   1.000
    C881    C    0.91028   0.37631   0.71013   1.000
    C882    C    0.93111   0.33577   0.70062   1.000
    C883    C    0.91701   0.34661   0.68385   1.000
    C884    C    0.89562   0.38669   0.69408   1.000
    C885    C    0.89889   0.37206   0.68119   1.000
    H886    H    0.84271   0.67253   0.71098   1.000
    H887    H    0.90963   0.51485   0.73468   1.000
    H888    H    0.88351   0.55251   0.74927   1.000
    H889    H    0.92826   0.38423   0.82446   1.000
    H890    H    0.95001   0.45366   0.77869   1.000
    H891    H    0.07824   0.29936   0.58302   1.000
    H892    H    0.05050   0.27082   0.66710   1.000
    H893    H    0.09421   0.36801   0.54151   1.000
    H894    H    0.07002   0.40797   0.51443   1.000
    H895    H    0.08433   0.41181   0.58302   1.000
    H896    H    0.06039   0.45151   0.55606   1.000
    H897    H    0.97758   0.47439   0.63910   1.000
    H898    H    0.99335   0.49049   0.59165   1.000
    H899    H    0.93941   0.34198   0.72592   1.000
    H900    H    0.94517   0.31624   0.70310   1.000
    H901    H    0.88186   0.40637   0.69105   1.000
    H902    H    0.88740   0.38102   0.66869   1.000
    C903    C    0.68056   0.82760   0.78908   1.000
    C904    C    0.52304   0.88898   0.85045   1.000
    C905    C    0.54461   0.87397   0.83545   1.000
    C906    C    0.39946   0.93321   0.84479   1.000
    C907    C    0.41896   0.93911   0.84359   1.000
    C908    C    0.43830   0.94542   0.81932   1.000
    C909    C    0.29274   0.06406   0.04163   1.000
    C910    C    0.28506   0.06782   0.02205   1.000
    C911    C    0.27678   0.04855   0.02610   1.000
    C912    C    0.38611   0.08703   0.98201   1.000
    C913    C    0.38640   0.09130   0.95760   1.000
    C914    C    0.40915   0.07319   0.98848   1.000
    C915    C    0.43328   0.06325   0.97073   1.000
    C916    C    0.41057   0.08149   0.93984   1.000
    C917    C    0.43353   0.06778   0.94626   1.000
    C918    C    0.47788   0.96575   0.92736   1.000
    C919    C    0.48724   0.97480   0.93637   1.000
    C920    C    0.35050   0.92776   0.00806   1.000
    C921    C    0.37631   0.91028   0.00328   1.000
    C922    C    0.33577   0.93111   0.03250   1.000
    C923    C    0.34661   0.91701   0.05253   1.000
    C924    C    0.38669   0.89562   0.02362   1.000
    C925    C    0.37206   0.89889   0.04787   1.000
    H926    H    0.67253   0.84271   0.77378   1.000
    H927    H    0.51485   0.90963   0.84083   1.000
    H928    H    0.55251   0.88351   0.81471   1.000
    H929    H    0.38423   0.92826   0.86305   1.000
    H930    H    0.45366   0.95001   0.81764   1.000
    H931    H    0.29936   0.07824   0.03939   1.000
    H932    H    0.27082   0.05050   0.01158   1.000
    H933    H    0.36801   0.09421   0.99626   1.000
    H934    H    0.40797   0.07002   0.00759   1.000
    H935    H    0.41181   0.08433   0.92083   1.000
    H936    H    0.45151   0.06039   0.93203   1.000
    H937    H    0.47439   0.97758   0.90893   1.000
    H938    H    0.49049   0.99335   0.92451   1.000
    H939    H    0.34198   0.93941   0.99270   1.000
    H940    H    0.31624   0.94517   0.03548   1.000
    H941    H    0.40637   0.88186   0.02072   1.000
    H942    H    0.38102   0.88740   0.06289   1.000
    C943    C    0.70277   0.78908   0.82760   1.000
    C944    C    0.73753   0.85045   0.88898   1.000
    C945    C    0.74597   0.83545   0.87397   1.000
    C946    C    0.82254   0.84479   0.93321   1.000
    C947    C    0.79833   0.84359   0.93911   1.000
    C948    C    0.79696   0.81932   0.94542   1.000
    C949    C    0.60157   0.04163   0.06406   1.000
    C950    C    0.62506   0.02205   0.06782   1.000
    C951    C    0.64857   0.02610   0.04855   1.000
    C952    C    0.54484   0.98201   0.08703   1.000
    C953    C    0.56470   0.95760   0.09130   1.000
    C954    C    0.52917   0.98848   0.07319   1.000
    C955    C    0.53274   0.97073   0.06325   1.000
    C956    C    0.56810   0.93984   0.08149   1.000
    C957    C    0.55243   0.94626   0.06778   1.000
    C958    C    0.62901   0.92736   0.96575   1.000
    C959    C    0.60159   0.93637   0.97480   1.000
    C960    C    0.71368   0.00806   0.92776   1.000
    C961    C    0.71013   0.00328   0.91028   1.000
    C962    C    0.70062   0.03250   0.93111   1.000
    C963    C    0.68385   0.05253   0.91701   1.000
    C964    C    0.69408   0.02362   0.89562   1.000
    C965    C    0.68119   0.04787   0.89889   1.000
    H966    H    0.71098   0.77378   0.84271   1.000
    H967    H    0.73468   0.84083   0.90963   1.000
    H968    H    0.74927   0.81471   0.88351   1.000
    H969    H    0.82446   0.86305   0.92826   1.000
    H970    H    0.77869   0.81764   0.95001   1.000
    H971    H    0.58302   0.03939   0.07824   1.000
    H972    H    0.66710   0.01158   0.05050   1.000
    H973    H    0.54151   0.99626   0.09421   1.000
    H974    H    0.51443   0.00759   0.07002   1.000
    H975    H    0.58302   0.92083   0.08433   1.000
    H976    H    0.55606   0.93203   0.06039   1.000
    H977    H    0.63910   0.90893   0.97758   1.000
    H978    H    0.59165   0.92451   0.99335   1.000
    H979    H    0.72592   0.99270   0.93941   1.000
    H980    H    0.70310   0.03548   0.94517   1.000
    H981    H    0.69105   0.02072   0.88186   1.000
    H982    H    0.66869   0.06289   0.88740   1.000
    C983    C    0.82760   0.78908   0.70277   1.000
    C984    C    0.88898   0.85045   0.73753   1.000
    C985    C    0.87397   0.83545   0.74597   1.000
    C986    C    0.93321   0.84479   0.82254   1.000
    C987    C    0.93911   0.84359   0.79833   1.000
    C988    C    0.94542   0.81932   0.79696   1.000
    C989    C    0.06406   0.04163   0.60157   1.000
    C990    C    0.06782   0.02205   0.62506   1.000
    C991    C    0.04855   0.02610   0.64857   1.000
    C992    C    0.08703   0.98201   0.54484   1.000
    C993    C    0.09130   0.95760   0.56470   1.000
    C994    C    0.07319   0.98848   0.52917   1.000
    C995    C    0.06325   0.97073   0.53274   1.000
    C996    C    0.08149   0.93984   0.56810   1.000
    C997    C    0.06778   0.94626   0.55243   1.000
    C998    C    0.96575   0.92736   0.62901   1.000
    C999    C    0.97480   0.93637   0.60159   1.000
    C1000   C    0.92776   0.00806   0.71368   1.000
    H1001   H    0.90963   0.84083   0.73468   1.000
    H1002   H    0.88351   0.81471   0.74927   1.000
    H1003   H    0.92826   0.86305   0.82446   1.000
    H1004   H    0.95001   0.81764   0.77869   1.000
    H1005   H    0.07824   0.03939   0.58302   1.000
    H1006   H    0.05050   0.01158   0.66710   1.000
    H1007   H    0.09421   0.99626   0.54151   1.000
    H1008   H    0.07002   0.00759   0.51443   1.000
    H1009   H    0.08433   0.92083   0.58302   1.000
    H1010   H    0.06039   0.93203   0.55606   1.000
    H1011   H    0.97758   0.90893   0.63910   1.000
    H1012   H    0.99335   0.92451   0.59165   1.000
    H1013   H    0.93941   0.99270   0.72592   1.000
    H1014   H    0.94517   0.03548   0.70310   1.000
    H1015   H    0.88186   0.02072   0.69105   1.000
    H1016   H    0.88740   0.06289   0.66869   1.000
    C1017   C    0.78908   0.82760   0.68056   1.000
    C1018   C    0.85045   0.88898   0.52304   1.000
    C1019   C    0.83545   0.87397   0.54461   1.000
    C1020   C    0.84479   0.93321   0.39946   1.000
    C1021   C    0.84359   0.93911   0.41896   1.000
    C1022   C    0.81932   0.94542   0.43830   1.000
    C1023   C    0.04163   0.06406   0.29274   1.000
    C1024   C    0.02205   0.06782   0.28506   1.000
    C1025   C    0.02610   0.04855   0.27678   1.000
    C1026   C    0.98201   0.08703   0.38611   1.000
    C1027   C    0.95760   0.09130   0.38640   1.000
    C1028   C    0.98848   0.07319   0.40915   1.000
    C1029   C    0.97073   0.06325   0.43328   1.000
    C1030   C    0.93984   0.08149   0.41057   1.000
    C1031   C    0.94626   0.06778   0.43353   1.000
    C1032   C    0.92736   0.96575   0.47788   1.000
    C1033   C    0.93637   0.97480   0.48724   1.000
    C1034   C    0.00806   0.92776   0.35050   1.000
    C1035   C    0.00328   0.91028   0.37631   1.000
    C1036   C    0.03250   0.93111   0.33577   1.000
    C1037   C    0.05253   0.91701   0.34661   1.000
    C1038   C    0.02362   0.89562   0.38669   1.000
    C1039   C    0.04787   0.89889   0.37206   1.000
    H1040   H    0.77378   0.84271   0.67253   1.000
    H1041   H    0.84083   0.90963   0.51485   1.000
    H1042   H    0.81471   0.88351   0.55251   1.000
    H1043   H    0.86305   0.92826   0.38423   1.000
    H1044   H    0.81764   0.95001   0.45366   1.000
    H1045   H    0.03939   0.07824   0.29936   1.000
    H1046   H    0.01158   0.05050   0.27082   1.000
    H1047   H    0.99626   0.09421   0.36801   1.000
    H1048   H    0.00759   0.07002   0.40797   1.000
    H1049   H    0.92083   0.08433   0.41181   1.000
    H1050   H    0.93203   0.06039   0.45151   1.000
    H1051   H    0.90893   0.97758   0.47439   1.000
    H1052   H    0.92451   0.99335   0.49049   1.000
    H1053   H    0.99270   0.93941   0.34198   1.000
    H1054   H    0.03548   0.94517   0.31624   1.000
    H1055   H    0.02072   0.88186   0.40637   1.000
    H1056   H    0.06289   0.88740   0.38102   1.000
    C1057   C    0.70277   0.68056   0.82760   1.000
    C1058   C    0.73753   0.52304   0.88898   1.000
    C1059   C    0.74597   0.54461   0.87397   1.000
    C1060   C    0.82254   0.39946   0.93321   1.000
    C1061   C    0.79833   0.41896   0.93911   1.000
    C1062   C    0.79696   0.43830   0.94542   1.000
    C1063   C    0.60157   0.29274   0.06406   1.000
    C1064   C    0.62506   0.28506   0.06782   1.000
    C1065   C    0.64857   0.27678   0.04855   1.000
    C1066   C    0.54484   0.38611   0.08703   1.000
    C1067   C    0.56470   0.38640   0.09130   1.000
    C1068   C    0.52917   0.40915   0.07319   1.000
    C1069   C    0.53274   0.43328   0.06325   1.000
    C1070   C    0.56810   0.41057   0.08149   1.000
    C1071   C    0.55243   0.43353   0.06778   1.000
    C1072   C    0.62901   0.47788   0.96575   1.000
    C1073   C    0.60159   0.48724   0.97480   1.000
    C1074   C    0.71368   0.35050   0.92776   1.000
    C1075   C    0.71013   0.37631   0.91028   1.000
    C1076   C    0.70062   0.33577   0.93111   1.000
    C1077   C    0.68385   0.34661   0.91701   1.000
    C1078   C    0.69408   0.38669   0.89562   1.000
    C1079   C    0.68119   0.37206   0.89889   1.000
    H1080   H    0.71098   0.67253   0.84271   1.000
    H1081   H    0.73468   0.51485   0.90963   1.000
    H1082   H    0.74927   0.55251   0.88351   1.000
    H1083   H    0.82446   0.38423   0.92826   1.000
    H1084   H    0.77869   0.45366   0.95001   1.000
    H1085   H    0.58302   0.29936   0.07824   1.000
    H1086   H    0.66710   0.27082   0.05050   1.000
    H1087   H    0.54151   0.36801   0.09421   1.000
    H1088   H    0.51443   0.40797   0.07002   1.000
    H1089   H    0.58302   0.41181   0.08433   1.000
    H1090   H    0.55606   0.45151   0.06039   1.000
    H1091   H    0.63910   0.47439   0.97758   1.000
    H1092   H    0.59165   0.49049   0.99335   1.000
    H1093   H    0.72592   0.34198   0.93941   1.000
    H1094   H    0.70310   0.31624   0.94517   1.000
    H1095   H    0.69105   0.40637   0.88186   1.000
    H1096   H    0.66869   0.38102   0.88740   1.000
    C1097   C    0.68056   0.70277   0.78908   1.000
    C1098   C    0.52304   0.73753   0.85045   1.000
    C1099   C    0.54461   0.74597   0.83545   1.000
    C1100   C    0.39946   0.82254   0.84479   1.000
    C1101   C    0.41896   0.79833   0.84359   1.000
    C1102   C    0.43830   0.79696   0.81932   1.000
    C1103   C    0.29274   0.60157   0.04163   1.000
    C1104   C    0.28506   0.62506   0.02205   1.000
    C1105   C    0.27678   0.64857   0.02610   1.000
    C1106   C    0.38611   0.54484   0.98201   1.000
    C1107   C    0.38640   0.56470   0.95760   1.000
    C1108   C    0.40915   0.52917   0.98848   1.000
    C1109   C    0.43328   0.53274   0.97073   1.000
    C1110   C    0.41057   0.56810   0.93984   1.000
    C1111   C    0.43353   0.55243   0.94626   1.000
    C1112   C    0.47788   0.62901   0.92736   1.000
    C1113   C    0.48724   0.60159   0.93637   1.000
    C1114   C    0.35050   0.71368   0.00806   1.000
    C1115   C    0.37631   0.71013   0.00328   1.000
    C1116   C    0.33577   0.70062   0.03250   1.000
    C1117   C    0.34661   0.68385   0.05253   1.000
    C1118   C    0.38669   0.69408   0.02362   1.000
    C1119   C    0.37206   0.68119   0.04787   1.000
    H1120   H    0.67253   0.71098   0.77378   1.000
    H1121   H    0.51485   0.73468   0.84083   1.000
    H1122   H    0.55251   0.74927   0.81471   1.000
    H1123   H    0.38423   0.82446   0.86305   1.000
    H1124   H    0.45366   0.77869   0.81764   1.000
    H1125   H    0.29936   0.58302   0.03939   1.000
    H1126   H    0.27082   0.66710   0.01158   1.000
    H1127   H    0.36801   0.54151   0.99626   1.000
    H1128   H    0.40797   0.51443   0.00759   1.000
    H1129   H    0.41181   0.58302   0.92083   1.000
    H1130   H    0.45151   0.55606   0.93203   1.000
    H1131   H    0.47439   0.63910   0.90893   1.000
    H1132   H    0.49049   0.59165   0.92451   1.000
    H1133   H    0.34198   0.72592   0.99270   1.000
    H1134   H    0.31624   0.70310   0.03548   1.000
    H1135   H    0.40637   0.69105   0.02072   1.000
    H1136   H    0.38102   0.66869   0.06289   1.000
    C1137   C    0.70277   0.82760   0.78908   1.000
    C1138   C    0.73753   0.88898   0.85045   1.000
    C1139   C    0.74597   0.87397   0.83545   1.000
    C1140   C    0.82254   0.93321   0.84479   1.000
    C1141   C    0.79833   0.93911   0.84359   1.000
    C1142   C    0.79696   0.94542   0.81932   1.000
    C1143   C    0.60157   0.06406   0.04163   1.000
    C1144   C    0.62506   0.06782   0.02205   1.000
    C1145   C    0.64857   0.04855   0.02610   1.000
    C1146   C    0.54484   0.08703   0.98201   1.000
    C1147   C    0.56470   0.09130   0.95760   1.000
    C1148   C    0.52917   0.07319   0.98848   1.000
    C1149   C    0.53274   0.06325   0.97073   1.000
    C1150   C    0.56810   0.08149   0.93984   1.000
    C1151   C    0.55243   0.06778   0.94626   1.000
    C1152   C    0.62901   0.96575   0.92736   1.000
    C1153   C    0.60159   0.97480   0.93637   1.000
    C1154   C    0.71368   0.92776   0.00806   1.000
    C1155   C    0.71013   0.91028   0.00328   1.000
    C1156   C    0.70062   0.93111   0.03250   1.000
    C1157   C    0.68385   0.91701   0.05253   1.000
    C1158   C    0.69408   0.89562   0.02362   1.000
    C1159   C    0.68119   0.89889   0.04787   1.000
    H1160   H    0.71098   0.84271   0.77378   1.000
    H1161   H    0.73468   0.90963   0.84083   1.000
    H1162   H    0.74927   0.88351   0.81471   1.000
    H1163   H    0.82446   0.92826   0.86305   1.000
    H1164   H    0.77869   0.95001   0.81764   1.000
    H1165   H    0.58302   0.07824   0.03939   1.000
    H1166   H    0.66710   0.05050   0.01158   1.000
    H1167   H    0.54151   0.09421   0.99626   1.000
    H1168   H    0.51443   0.07002   0.00759   1.000
    H1169   H    0.58302   0.08433   0.92083   1.000
    H1170   H    0.55606   0.06039   0.93203   1.000
    H1171   H    0.63910   0.97758   0.90893   1.000
    H1172   H    0.59165   0.99335   0.92451   1.000
    H1173   H    0.72592   0.93941   0.99270   1.000
    H1174   H    0.70310   0.94517   0.03548   1.000
    H1175   H    0.69105   0.88186   0.02072   1.000
    H1176   H    0.66869   0.88740   0.06289   1.000
    C1177   C    0.68056   0.78908   0.82760   1.000
    C1178   C    0.52304   0.85045   0.88898   1.000
    C1179   C    0.54461   0.83545   0.87397   1.000
    C1180   C    0.39946   0.84479   0.93321   1.000
    C1181   C    0.41896   0.84359   0.93911   1.000
    C1182   C    0.43830   0.81932   0.94542   1.000
    C1183   C    0.29274   0.04163   0.06406   1.000
    C1184   C    0.28506   0.02205   0.06782   1.000
    C1185   C    0.27678   0.02610   0.04855   1.000
    C1186   C    0.38611   0.98201   0.08703   1.000
    C1187   C    0.38640   0.95760   0.09130   1.000
    C1188   C    0.40915   0.98848   0.07319   1.000
    C1189   C    0.43328   0.97073   0.06325   1.000
    C1190   C    0.41057   0.93984   0.08149   1.000
    C1191   C    0.43353   0.94626   0.06778   1.000
    C1192   C    0.47788   0.92736   0.96575   1.000
    C1193   C    0.48724   0.93637   0.97480   1.000
    C1194   C    0.35050   0.00806   0.92776   1.000
    C1195   C    0.37631   0.00328   0.91028   1.000
    C1196   C    0.33577   0.03250   0.93111   1.000
    C1197   C    0.34661   0.05253   0.91701   1.000
    C1198   C    0.38669   0.02362   0.89562   1.000
    C1199   C    0.37206   0.04787   0.89889   1.000
    H1200   H    0.67253   0.77378   0.84271   1.000
    H1201   H    0.51485   0.84083   0.90963   1.000
    H1202   H    0.55251   0.81471   0.88351   1.000
    H1203   H    0.38423   0.86305   0.92826   1.000
    H1204   H    0.45366   0.81764   0.95001   1.000
    H1205   H    0.29936   0.03939   0.07824   1.000
    H1206   H    0.27082   0.01158   0.05050   1.000
    H1207   H    0.36801   0.99626   0.09421   1.000
    H1208   H    0.40797   0.00759   0.07002   1.000
    H1209   H    0.41181   0.92083   0.08433   1.000
    H1210   H    0.45151   0.93203   0.06039   1.000
    H1211   H    0.47439   0.90893   0.97758   1.000
    H1212   H    0.49049   0.92451   0.99335   1.000
    H1213   H    0.34198   0.99270   0.93941   1.000
    H1214   H    0.31624   0.03548   0.94517   1.000
    H1215   H    0.40637   0.02072   0.88186   1.000
    H1216   H    0.38102   0.06289   0.88740   1.000
    C1217   C    0.82760   0.70277   0.68056   1.000
    C1218   C    0.88898   0.73753   0.52304   1.000
    C1219   C    0.87397   0.74597   0.54461   1.000
    C1220   C    0.93321   0.82254   0.39946   1.000
    C1221   C    0.93911   0.79833   0.41896   1.000
    C1222   C    0.94542   0.79696   0.43830   1.000
    C1223   C    0.06406   0.60157   0.29274   1.000
    C1224   C    0.06782   0.62506   0.28506   1.000
    C1225   C    0.04855   0.64857   0.27678   1.000
    C1226   C    0.08703   0.54484   0.38611   1.000
    C1227   C    0.09130   0.56470   0.38640   1.000
    C1228   C    0.07319   0.52917   0.40915   1.000
    C1229   C    0.06325   0.53274   0.43328   1.000
    C1230   C    0.08149   0.56810   0.41057   1.000
    C1231   C    0.06778   0.55243   0.43353   1.000
    C1232   C    0.96575   0.62901   0.47788   1.000
    C1233   C    0.97480   0.60159   0.48724   1.000
    C1234   C    0.92776   0.71368   0.35050   1.000
    C1235   C    0.91028   0.71013   0.37631   1.000
    C1236   C    0.93111   0.70062   0.33577   1.000
    C1237   C    0.91701   0.68385   0.34661   1.000
    C1238   C    0.89562   0.69408   0.38669   1.000
    C1239   C    0.89889   0.68119   0.37206   1.000
    H1240   H    0.84271   0.71098   0.67253   1.000
    H1241   H    0.90963   0.73468   0.51485   1.000
    H1242   H    0.88351   0.74927   0.55251   1.000
    H1243   H    0.92826   0.82446   0.38423   1.000
    H1244   H    0.95001   0.77869   0.45366   1.000
    H1245   H    0.07824   0.58302   0.29936   1.000
    H1246   H    0.05050   0.66710   0.27082   1.000
    H1247   H    0.09421   0.54151   0.36801   1.000
    H1248   H    0.07002   0.51443   0.40797   1.000
    H1249   H    0.08433   0.58302   0.41181   1.000
    H1250   H    0.06039   0.55606   0.45151   1.000
    H1251   H    0.97758   0.63910   0.47439   1.000
    H1252   H    0.99335   0.59165   0.49049   1.000
    H1253   H    0.93941   0.72592   0.34198   1.000
    H1254   H    0.94517   0.70310   0.31624   1.000
    H1255   H    0.88186   0.69105   0.40637   1.000
    H1256   H    0.88740   0.66869   0.38102   1.000
    C1257   C    0.78908   0.68056   0.70277   1.000
    C1258   C    0.85045   0.52304   0.73753   1.000
    C1259   C    0.83545   0.54461   0.74597   1.000
    C1260   C    0.84479   0.39946   0.82254   1.000
    C1261   C    0.84359   0.41896   0.79833   1.000
    C1262   C    0.81932   0.43830   0.79696   1.000
    C1263   C    0.04163   0.29274   0.60157   1.000
    C1264   C    0.02205   0.28506   0.62506   1.000
    C1265   C    0.02610   0.27678   0.64857   1.000
    C1266   C    0.98201   0.38611   0.54484   1.000
    C1267   C    0.95760   0.38640   0.56470   1.000
    C1268   C    0.98848   0.40915   0.52917   1.000
    C1269   C    0.97073   0.43328   0.53274   1.000
    C1270   C    0.93984   0.41057   0.56810   1.000
    C1271   C    0.94626   0.43353   0.55243   1.000
    C1272   C    0.92736   0.47788   0.62901   1.000
    C1273   C    0.93637   0.48724   0.60159   1.000
    C1274   C    0.00806   0.35050   0.71368   1.000
    C1275   C    0.00328   0.37631   0.71013   1.000
    C1276   C    0.03250   0.33577   0.70062   1.000
    C1277   C    0.05253   0.34661   0.68385   1.000
    C1278   C    0.02362   0.38669   0.69408   1.000
    C1279   C    0.04787   0.37206   0.68119   1.000
    C1280   C    0.78908   0.70277   0.82760   1.000
    C1281   C    0.85045   0.73753   0.88898   1.000
    C1282   C    0.83545   0.74597   0.87397   1.000
    C1283   C    0.84479   0.82254   0.93321   1.000
    C1284   C    0.84359   0.79833   0.93911   1.000
    C1285   C    0.81932   0.79696   0.94542   1.000
    C1286   C    0.04163   0.60157   0.06406   1.000
    C1287   C    0.02205   0.62506   0.06782   1.000
    C1288   C    0.02610   0.64857   0.04855   1.000
    C1289   C    0.98201   0.54484   0.08703   1.000
    C1290   C    0.95760   0.56470   0.09130   1.000
    C1291   C    0.98848   0.52917   0.07319   1.000
    C1292   C    0.97073   0.53274   0.06325   1.000
    C1293   C    0.93984   0.56810   0.08149   1.000
    C1294   C    0.94626   0.55243   0.06778   1.000
    C1295   C    0.92736   0.62901   0.96575   1.000
    C1296   C    0.93637   0.60159   0.97480   1.000
    C1297   C    0.00806   0.71368   0.92776   1.000
    C1298   C    0.00328   0.71013   0.91028   1.000
    C1299   C    0.03250   0.70062   0.93111   1.000
    C1300   C    0.05253   0.68385   0.91701   1.000
    C1301   C    0.02362   0.69408   0.89562   1.000
    C1302   C    0.04787   0.68119   0.89889   1.000
    H1303   H    0.77378   0.71098   0.84271   1.000
    H1304   H    0.84083   0.73468   0.90963   1.000
    H1305   H    0.81471   0.74927   0.88351   1.000
    H1306   H    0.86305   0.82446   0.92826   1.000
    H1307   H    0.81764   0.77869   0.95001   1.000
    H1308   H    0.03939   0.58302   0.07824   1.000
    H1309   H    0.01158   0.66710   0.05050   1.000
    H1310   H    0.99626   0.54151   0.09421   1.000
    H1311   H    0.00759   0.51443   0.07002   1.000
    H1312   H    0.92083   0.58302   0.08433   1.000
    H1313   H    0.93203   0.55606   0.06039   1.000
    H1314   H    0.90893   0.63910   0.97758   1.000
    H1315   H    0.92451   0.59165   0.99335   1.000
    H1316   H    0.99270   0.72592   0.93941   1.000
    H1317   H    0.03548   0.70310   0.94517   1.000
    H1318   H    0.02072   0.69105   0.88186   1.000
    H1319   H    0.06289   0.66869   0.88740   1.000
    C1320   C    0.82760   0.68056   0.78908   1.000
    C1321   C    0.88898   0.52304   0.85045   1.000
    C1322   C    0.87397   0.54461   0.83545   1.000
    C1323   C    0.93321   0.39946   0.84479   1.000
    C1324   C    0.93911   0.41896   0.84359   1.000
    C1325   C    0.94542   0.43830   0.81932   1.000
    C1326   C    0.06406   0.29274   0.04163   1.000
    C1327   C    0.06782   0.28506   0.02205   1.000
    C1328   C    0.04855   0.27678   0.02610   1.000
    C1329   C    0.08703   0.38611   0.98201   1.000
    C1330   C    0.09130   0.38640   0.95760   1.000
    C1331   C    0.07319   0.40915   0.98848   1.000
    C1332   C    0.06325   0.43328   0.97073   1.000
    C1333   C    0.08149   0.41057   0.93984   1.000
    C1334   C    0.06778   0.43353   0.94626   1.000
    C1335   C    0.96575   0.47788   0.92736   1.000
    C1336   C    0.97480   0.48724   0.93637   1.000
    C1337   C    0.92776   0.35050   0.00806   1.000
    C1338   C    0.91028   0.37631   0.00328   1.000
    C1339   C    0.93111   0.33577   0.03250   1.000
    C1340   C    0.91701   0.34661   0.05253   1.000
    C1341   C    0.89562   0.38669   0.02362   1.000
    C1342   C    0.89889   0.37206   0.04787   1.000
    H1343   H    0.84271   0.67253   0.77378   1.000
    H1344   H    0.90963   0.51485   0.84083   1.000
    H1345   H    0.88351   0.55251   0.81471   1.000
    H1346   H    0.92826   0.38423   0.86305   1.000
    H1347   H    0.95001   0.45366   0.81764   1.000
    H1348   H    0.07824   0.29936   0.03939   1.000
    H1349   H    0.05050   0.27082   0.01158   1.000
    H1350   H    0.09421   0.36801   0.99626   1.000
    H1351   H    0.07002   0.40797   0.00759   1.000
    H1352   H    0.08433   0.41181   0.92083   1.000
    H1353   H    0.06039   0.45151   0.93203   1.000
    H1354   H    0.97758   0.47439   0.90893   1.000
    H1355   H    0.99335   0.49049   0.92451   1.000
    H1356   H    0.93941   0.34198   0.99270   1.000
    H1357   H    0.94517   0.31624   0.03548   1.000
    H1358   H    0.88186   0.40637   0.02072   1.000
    H1359   H    0.88740   0.38102   0.06289   1.000
    C1360   C    0.68056   0.82760   0.70277   1.000
    C1361   C    0.52304   0.88898   0.73753   1.000
    C1362   C    0.54461   0.87397   0.74597   1.000
    C1363   C    0.39946   0.93321   0.82254   1.000
    C1364   C    0.41896   0.93911   0.79833   1.000
    C1365   C    0.43830   0.94542   0.79696   1.000
    C1366   C    0.29274   0.06406   0.60157   1.000
    C1367   C    0.28506   0.06782   0.62506   1.000
    C1368   C    0.27678   0.04855   0.64857   1.000
    C1369   C    0.38611   0.08703   0.54484   1.000
    C1370   C    0.38640   0.09130   0.56470   1.000
    C1371   C    0.40915   0.07319   0.52917   1.000
    C1372   C    0.43328   0.06325   0.53274   1.000
    C1373   C    0.41057   0.08149   0.56810   1.000
    C1374   C    0.43353   0.06778   0.55243   1.000
    C1375   C    0.47788   0.96575   0.62901   1.000
    C1376   C    0.48724   0.97480   0.60159   1.000
    C1377   C    0.35050   0.92776   0.71368   1.000
    C1378   C    0.37631   0.91028   0.71013   1.000
    C1379   C    0.33577   0.93111   0.70062   1.000
    C1380   C    0.34661   0.91701   0.68385   1.000
    C1381   C    0.38669   0.89562   0.69408   1.000
    C1382   C    0.37206   0.89889   0.68119   1.000
    H1383   H    0.67253   0.84271   0.71098   1.000
    H1384   H    0.51485   0.90963   0.73468   1.000
    H1385   H    0.55251   0.88351   0.74927   1.000
    H1386   H    0.38423   0.92826   0.82446   1.000
    H1387   H    0.45366   0.95001   0.77869   1.000
    H1388   H    0.29936   0.07824   0.58302   1.000
    H1389   H    0.27082   0.05050   0.66710   1.000
    H1390   H    0.36801   0.09421   0.54151   1.000
    H1391   H    0.40797   0.07002   0.51443   1.000
    H1392   H    0.41181   0.08433   0.58302   1.000
    H1393   H    0.45151   0.06039   0.55606   1.000
    H1394   H    0.47439   0.97758   0.63910   1.000
    H1395   H    0.49049   0.99335   0.59165   1.000
    H1396   H    0.34198   0.93941   0.72592   1.000
    H1397   H    0.31624   0.94517   0.70310   1.000
    H1398   H    0.40637   0.88186   0.69105   1.000
    H1399   H    0.38102   0.88740   0.66869   1.000
    C1400   C    0.70277   0.78908   0.68056   1.000
    C1401   C    0.73753   0.85045   0.52304   1.000
    C1402   C    0.74597   0.83545   0.54461   1.000
    C1403   C    0.82254   0.84479   0.39946   1.000
    C1404   C    0.79833   0.84359   0.41896   1.000
    C1405   C    0.79696   0.81932   0.43830   1.000
    C1406   C    0.60157   0.04163   0.29274   1.000
    C1407   C    0.62506   0.02205   0.28506   1.000
    C1408   C    0.64857   0.02610   0.27678   1.000
    C1409   C    0.54484   0.98201   0.38611   1.000
    C1410   C    0.56470   0.95760   0.38640   1.000
    C1411   C    0.52917   0.98848   0.40915   1.000
    C1412   C    0.53274   0.97073   0.43328   1.000
    C1413   C    0.56810   0.93984   0.41057   1.000
    C1414   C    0.55243   0.94626   0.43353   1.000
    C1415   C    0.62901   0.92736   0.47788   1.000
    C1416   C    0.60159   0.93637   0.48724   1.000
    C1417   C    0.71368   0.00806   0.35050   1.000
    C1418   C    0.71013   0.00328   0.37631   1.000
    C1419   C    0.70062   0.03250   0.33577   1.000
    C1420   C    0.68385   0.05253   0.34661   1.000
    C1421   C    0.69408   0.02362   0.38669   1.000
    C1422   C    0.68119   0.04787   0.37206   1.000
    H1423   H    0.71098   0.77378   0.67253   1.000
    H1424   H    0.73468   0.84083   0.51485   1.000
    H1425   H    0.74927   0.81471   0.55251   1.000
    H1426   H    0.82446   0.86305   0.38423   1.000
    H1427   H    0.77869   0.81764   0.45366   1.000
    H1428   H    0.58302   0.03939   0.29936   1.000
    H1429   H    0.66710   0.01158   0.27082   1.000
    H1430   H    0.54151   0.99626   0.36801   1.000
    H1431   H    0.51443   0.00759   0.40797   1.000
    H1432   H    0.58302   0.92083   0.41181   1.000
    H1433   H    0.55606   0.93203   0.45151   1.000
    H1434   H    0.63910   0.90893   0.47439   1.000
    H1435   H    0.59165   0.92451   0.49049   1.000
    H1436   H    0.72592   0.99270   0.34198   1.000
    H1437   H    0.70310   0.03548   0.31624   1.000
    H1438   H    0.69105   0.02072   0.40637   1.000
    H1439   H    0.66869   0.06289   0.38102   1.000
    C1440   C    0.42240   0.46092   0.56944   1.000
    C1441   C    0.36102   0.39955   0.72696   1.000
    C1442   C    0.37603   0.41455   0.70539   1.000
    C1443   C    0.31679   0.40521   0.85054   1.000
    C1444   C    0.31089   0.40641   0.83104   1.000
    C1445   C    0.30458   0.43068   0.81170   1.000
    C1446   C    0.18594   0.20837   0.95726   1.000
    C1447   C    0.18218   0.22795   0.96494   1.000
    C1448   C    0.20145   0.22390   0.97322   1.000
    C1449   C    0.16297   0.26799   0.86389   1.000
    C1450   C    0.15870   0.29240   0.86360   1.000
    C1451   C    0.17681   0.26152   0.84085   1.000
    C1452   C    0.18675   0.27927   0.81672   1.000
    C1453   C    0.16851   0.31016   0.83943   1.000
    C1454   C    0.18222   0.30374   0.81647   1.000
    C1455   C    0.28425   0.32264   0.77212   1.000
    C1456   C    0.27520   0.31363   0.76276   1.000
    C1457   C    0.32224   0.24194   0.89950   1.000
    C1458   C    0.33972   0.24672   0.87369   1.000
    C1459   C    0.31889   0.21750   0.91423   1.000
    C1460   C    0.33299   0.19747   0.90339   1.000
    C1461   C    0.35438   0.22638   0.86331   1.000
    C1462   C    0.35111   0.20213   0.87794   1.000
    H1463   H    0.40729   0.47622   0.57747   1.000
    H1464   H    0.34037   0.40917   0.73515   1.000
    H1465   H    0.36649   0.43529   0.69749   1.000
    H1466   H    0.32174   0.38695   0.86577   1.000
    H1467   H    0.29999   0.43236   0.79634   1.000
    H1468   H    0.17176   0.21061   0.95064   1.000
    H1469   H    0.19950   0.23842   0.97918   1.000
    H1470   H    0.15579   0.25374   0.88199   1.000
    H1471   H    0.17998   0.24241   0.84203   1.000
    H1472   H    0.16567   0.32917   0.83819   1.000
    H1473   H    0.18961   0.31797   0.79849   1.000
    H1474   H    0.27242   0.34107   0.77561   1.000
    H1475   H    0.25665   0.32549   0.75951   1.000
    H1476   H    0.31059   0.25730   0.90802   1.000
    H1477   H    0.30483   0.21452   0.93376   1.000
    H1478   H    0.36814   0.22928   0.84363   1.000
    H1479   H    0.36260   0.18711   0.86898   1.000
    C1480   C    0.46092   0.42240   0.54723   1.000
    C1481   C    0.39955   0.36102   0.51247   1.000
    C1482   C    0.41455   0.37603   0.50403   1.000
    C1483   C    0.40521   0.31679   0.42746   1.000
    C1484   C    0.40641   0.31089   0.45167   1.000
    C1485   C    0.43068   0.30458   0.45304   1.000
    C1486   C    0.20837   0.18594   0.64843   1.000
    C1487   C    0.22795   0.18218   0.62494   1.000
    C1488   C    0.22390   0.20145   0.60143   1.000
    C1489   C    0.26799   0.16297   0.70516   1.000
    C1490   C    0.29240   0.15870   0.68530   1.000
    C1491   C    0.26152   0.17681   0.72083   1.000
    C1492   C    0.27927   0.18675   0.71726   1.000
    C1493   C    0.31016   0.16851   0.68190   1.000
    C1494   C    0.30374   0.18222   0.69757   1.000
    C1495   C    0.32264   0.28425   0.62099   1.000
    C1496   C    0.31363   0.27520   0.64841   1.000
    C1497   C    0.24194   0.32224   0.53632   1.000
    C1498   C    0.24672   0.33972   0.53987   1.000
    C1499   C    0.21750   0.31889   0.54938   1.000
    C1500   C    0.19747   0.33299   0.56615   1.000
    C1501   C    0.22638   0.35438   0.55592   1.000
    C1502   C    0.20213   0.35111   0.56881   1.000
    H1503   H    0.47622   0.40729   0.53902   1.000
    H1504   H    0.40917   0.34037   0.51532   1.000
    H1505   H    0.43529   0.36649   0.50073   1.000
    H1506   H    0.38695   0.32174   0.42554   1.000
    H1507   H    0.43236   0.29999   0.47131   1.000
    H1508   H    0.21061   0.17176   0.66698   1.000
    H1509   H    0.23842   0.19950   0.58290   1.000
    H1510   H    0.25374   0.15579   0.70849   1.000
    H1511   H    0.24241   0.17998   0.73557   1.000
    H1512   H    0.32917   0.16567   0.66698   1.000
    H1513   H    0.31797   0.18961   0.69394   1.000
    H1514   H    0.34107   0.27242   0.61090   1.000
    H1515   H    0.32549   0.25665   0.65835   1.000
    H1516   H    0.25730   0.31059   0.52408   1.000
    H1517   H    0.21452   0.30483   0.54690   1.000
    H1518   H    0.22928   0.36814   0.55895   1.000
    H1519   H    0.18711   0.36260   0.58131   1.000
    C1520   C    0.54723   0.56944   0.46092   1.000
    C1521   C    0.51247   0.72696   0.39955   1.000
    C1522   C    0.50403   0.70539   0.41455   1.000
    C1523   C    0.42746   0.85054   0.40521   1.000
    C1524   C    0.45167   0.83104   0.40641   1.000
    C1525   C    0.45304   0.81170   0.43068   1.000
    C1526   C    0.64843   0.95726   0.20837   1.000
    C1527   C    0.62494   0.96494   0.22795   1.000
    C1528   C    0.60143   0.97322   0.22390   1.000
    C1529   C    0.70516   0.86389   0.26799   1.000
    C1530   C    0.68530   0.86360   0.29240   1.000
    C1531   C    0.72083   0.84085   0.26152   1.000
    C1532   C    0.71726   0.81672   0.27927   1.000
    C1533   C    0.68190   0.83943   0.31016   1.000
    C1534   C    0.69757   0.81647   0.30374   1.000
    C1535   C    0.62099   0.77212   0.32264   1.000
    C1536   C    0.64841   0.76276   0.31363   1.000
    C1537   C    0.53632   0.89950   0.24194   1.000
    C1538   C    0.53987   0.87369   0.24672   1.000
    C1539   C    0.54938   0.91423   0.21750   1.000
    C1540   C    0.56615   0.90339   0.19747   1.000
    C1541   C    0.55592   0.86331   0.22638   1.000
    C1542   C    0.56881   0.87794   0.20213   1.000
    H1543   H    0.53902   0.57747   0.47622   1.000
    H1544   H    0.51532   0.73515   0.40917   1.000
    H1545   H    0.50073   0.69749   0.43529   1.000
    H1546   H    0.42554   0.86577   0.38695   1.000
    H1547   H    0.47131   0.79634   0.43236   1.000
    H1548   H    0.66698   0.95064   0.21061   1.000
    H1549   H    0.58290   0.97918   0.23842   1.000
    H1550   H    0.70849   0.88199   0.25374   1.000
    H1551   H    0.73557   0.84203   0.24241   1.000
    H1552   H    0.66698   0.83819   0.32917   1.000
    H1553   H    0.69394   0.79849   0.31797   1.000
    H1554   H    0.61090   0.77561   0.34107   1.000
    H1555   H    0.65835   0.75951   0.32549   1.000
    H1556   H    0.52408   0.90802   0.25730   1.000
    H1557   H    0.54690   0.93376   0.21452   1.000
    H1558   H    0.55895   0.84363   0.22928   1.000
    H1559   H    0.58131   0.86898   0.18711   1.000
    C1560   C    0.56944   0.54723   0.42240   1.000
    C1561   C    0.72696   0.51247   0.36102   1.000
    C1562   C    0.70539   0.50403   0.37603   1.000
    C1563   C    0.85054   0.42746   0.31679   1.000
    C1564   C    0.83104   0.45167   0.31089   1.000
    C1565   C    0.81170   0.45304   0.30458   1.000
    C1566   C    0.95726   0.64843   0.18594   1.000
    C1567   C    0.96494   0.62494   0.18218   1.000
    C1568   C    0.97322   0.60143   0.20145   1.000
    C1569   C    0.86389   0.70516   0.16297   1.000
    C1570   C    0.86360   0.68530   0.15870   1.000
    C1571   C    0.84085   0.72083   0.17681   1.000
    C1572   C    0.81672   0.71726   0.18675   1.000
    C1573   C    0.83943   0.68190   0.16851   1.000
    C1574   C    0.81647   0.69757   0.18222   1.000
    C1575   C    0.77212   0.62099   0.28425   1.000
    C1576   C    0.76276   0.64841   0.27520   1.000
    C1577   C    0.89950   0.53632   0.32224   1.000
    C1578   C    0.87369   0.53987   0.33972   1.000
    C1579   C    0.91423   0.54938   0.31889   1.000
    C1580   C    0.90339   0.56615   0.33299   1.000
    C1581   C    0.86331   0.55592   0.35438   1.000
    C1582   C    0.87794   0.56881   0.35111   1.000
    H1583   H    0.57747   0.53902   0.40729   1.000
    H1584   H    0.73515   0.51532   0.34037   1.000
    H1585   H    0.69749   0.50073   0.36649   1.000
    H1586   H    0.86577   0.42554   0.32174   1.000
    H1587   H    0.79634   0.47131   0.29999   1.000
    H1588   H    0.95064   0.66698   0.17176   1.000
    H1589   H    0.97918   0.58290   0.19950   1.000
    H1590   H    0.88199   0.70849   0.15579   1.000
    H1591   H    0.84203   0.73557   0.17998   1.000
    H1592   H    0.83819   0.66698   0.16567   1.000
    H1593   H    0.79849   0.69394   0.18961   1.000
    H1594   H    0.77561   0.61090   0.27242   1.000
    H1595   H    0.75951   0.65835   0.25665   1.000
    H1596   H    0.90802   0.52408   0.31059   1.000
    H1597   H    0.93376   0.54690   0.30483   1.000
    H1598   H    0.84363   0.55895   0.36814   1.000
    H1599   H    0.86898   0.58131   0.36260   1.000
    C1600   C    0.54723   0.42240   0.56944   1.000
    C1601   C    0.51247   0.36102   0.72696   1.000
    C1602   C    0.50403   0.37603   0.70539   1.000
    C1603   C    0.42746   0.31679   0.85054   1.000
    C1604   C    0.45167   0.31089   0.83104   1.000
    C1605   C    0.45304   0.30458   0.81170   1.000
    C1606   C    0.64843   0.18594   0.95726   1.000
    C1607   C    0.62494   0.18218   0.96494   1.000
    C1608   C    0.60143   0.20145   0.97322   1.000
    C1609   C    0.70516   0.16297   0.86389   1.000
    C1610   C    0.68530   0.15870   0.86360   1.000
    C1611   C    0.72083   0.17681   0.84085   1.000
    C1612   C    0.71726   0.18675   0.81672   1.000
    C1613   C    0.68190   0.16851   0.83943   1.000
    C1614   C    0.69757   0.18222   0.81647   1.000
    C1615   C    0.62099   0.28425   0.77212   1.000
    C1616   C    0.64841   0.27520   0.76276   1.000
    C1617   C    0.53632   0.32224   0.89950   1.000
    C1618   C    0.53987   0.33972   0.87369   1.000
    C1619   C    0.54938   0.31889   0.91423   1.000
    C1620   C    0.56615   0.33299   0.90339   1.000
    C1621   C    0.55592   0.35438   0.86331   1.000
    C1622   C    0.56881   0.35111   0.87794   1.000
    H1623   H    0.53902   0.40729   0.57747   1.000
    H1624   H    0.51532   0.34037   0.73515   1.000
    H1625   H    0.50073   0.36649   0.69749   1.000
    H1626   H    0.42554   0.32174   0.86577   1.000
    H1627   H    0.47131   0.29999   0.79634   1.000
    H1628   H    0.66698   0.17176   0.95064   1.000
    H1629   H    0.58290   0.19950   0.97918   1.000
    H1630   H    0.70849   0.15579   0.88199   1.000
    H1631   H    0.73557   0.17998   0.84203   1.000
    H1632   H    0.66698   0.16567   0.83819   1.000
    H1633   H    0.69394   0.18961   0.79849   1.000
    H1634   H    0.61090   0.27242   0.77561   1.000
    H1635   H    0.65835   0.25665   0.75951   1.000
    H1636   H    0.52408   0.31059   0.90802   1.000
    H1637   H    0.54690   0.30483   0.93376   1.000
    H1638   H    0.55895   0.36814   0.84363   1.000
    H1639   H    0.58131   0.36260   0.86898   1.000
    C1640   C    0.56944   0.46092   0.54723   1.000
    C1641   C    0.72696   0.39955   0.51247   1.000
    C1642   C    0.70539   0.41455   0.50403   1.000
    C1643   C    0.85054   0.40521   0.42746   1.000
    C1644   C    0.83104   0.40641   0.45167   1.000
    C1645   C    0.81170   0.43068   0.45304   1.000
    C1646   C    0.95726   0.20837   0.64843   1.000
    C1647   C    0.96494   0.22795   0.62494   1.000
    C1648   C    0.97322   0.22390   0.60143   1.000
    C1649   C    0.86389   0.26799   0.70516   1.000
    C1650   C    0.86360   0.29240   0.68530   1.000
    C1651   C    0.84085   0.26152   0.72083   1.000
    C1652   C    0.81672   0.27927   0.71726   1.000
    C1653   C    0.83943   0.31016   0.68190   1.000
    C1654   C    0.81647   0.30374   0.69757   1.000
    C1655   C    0.77212   0.32264   0.62099   1.000
    C1656   C    0.76276   0.31363   0.64841   1.000
    C1657   C    0.89950   0.24194   0.53632   1.000
    C1658   C    0.87369   0.24672   0.53987   1.000
    C1659   C    0.91423   0.21750   0.54938   1.000
    C1660   C    0.90339   0.19747   0.56615   1.000
    C1661   C    0.86331   0.22638   0.55592   1.000
    C1662   C    0.87794   0.20213   0.56881   1.000
    H1663   H    0.57747   0.47622   0.53902   1.000
    H1664   H    0.73515   0.40917   0.51532   1.000
    H1665   H    0.69749   0.43529   0.50073   1.000
    H1666   H    0.86577   0.38695   0.42554   1.000
    H1667   H    0.79634   0.43236   0.47131   1.000
    H1668   H    0.95064   0.21061   0.66698   1.000
    H1669   H    0.97918   0.23842   0.58290   1.000
    H1670   H    0.88199   0.25374   0.70849   1.000
    H1671   H    0.84203   0.24241   0.73557   1.000
    H1672   H    0.83819   0.32917   0.66698   1.000
    H1673   H    0.79849   0.31797   0.69394   1.000
    H1674   H    0.77561   0.34107   0.61090   1.000
    H1675   H    0.75951   0.32549   0.65835   1.000
    H1676   H    0.90802   0.25730   0.52408   1.000
    H1677   H    0.93376   0.21452   0.54690   1.000
    H1678   H    0.84363   0.22928   0.55895   1.000
    H1679   H    0.86898   0.18711   0.58131   1.000
    C1680   C    0.42240   0.54723   0.46092   1.000
    C1681   C    0.36102   0.51247   0.39955   1.000
    C1682   C    0.37603   0.50403   0.41455   1.000
    C1683   C    0.31679   0.42746   0.40521   1.000
    C1684   C    0.31089   0.45167   0.40641   1.000
    C1685   C    0.30458   0.45304   0.43068   1.000
    C1686   C    0.18594   0.64843   0.20837   1.000
    C1687   C    0.18218   0.62494   0.22795   1.000
    C1688   C    0.20145   0.60143   0.22390   1.000
    C1689   C    0.16297   0.70516   0.26799   1.000
    C1690   C    0.15870   0.68530   0.29240   1.000
    C1691   C    0.17681   0.72083   0.26152   1.000
    C1692   C    0.18675   0.71726   0.27927   1.000
    C1693   C    0.16851   0.68190   0.31016   1.000
    C1694   C    0.18222   0.69757   0.30374   1.000
    C1695   C    0.28425   0.62099   0.32264   1.000
    C1696   C    0.27520   0.64841   0.31363   1.000
    C1697   C    0.32224   0.53632   0.24194   1.000
    C1698   C    0.33972   0.53987   0.24672   1.000
    C1699   C    0.31889   0.54938   0.21750   1.000
    C1700   C    0.33299   0.56615   0.19747   1.000
    C1701   C    0.35438   0.55592   0.22638   1.000
    C1702   C    0.35111   0.56881   0.20213   1.000
    H1703   H    0.40729   0.53902   0.47622   1.000
    H1704   H    0.34037   0.51532   0.40917   1.000
    H1705   H    0.36649   0.50073   0.43529   1.000
    H1706   H    0.32174   0.42554   0.38695   1.000
    H1707   H    0.29999   0.47131   0.43236   1.000
    H1708   H    0.17176   0.66698   0.21061   1.000
    H1709   H    0.19950   0.58290   0.23842   1.000
    H1710   H    0.15579   0.70849   0.25374   1.000
    H1711   H    0.17998   0.73557   0.24241   1.000
    H1712   H    0.16567   0.66698   0.32917   1.000
    H1713   H    0.18961   0.69394   0.31797   1.000
    H1714   H    0.27242   0.61090   0.34107   1.000
    H1715   H    0.25665   0.65835   0.32549   1.000
    H1716   H    0.31059   0.52408   0.25730   1.000
    H1717   H    0.30483   0.54690   0.21452   1.000
    H1718   H    0.36814   0.55895   0.22928   1.000
    H1719   H    0.36260   0.58131   0.18711   1.000
    C1720   C    0.46092   0.56944   0.42240   1.000
    C1721   C    0.39955   0.72696   0.36102   1.000
    C1722   C    0.41455   0.70539   0.37603   1.000
    C1723   C    0.40521   0.85054   0.31679   1.000
    C1724   C    0.40641   0.83104   0.31089   1.000
    C1725   C    0.43068   0.81170   0.30458   1.000
    C1726   C    0.20837   0.95726   0.18594   1.000
    C1727   C    0.22795   0.96494   0.18218   1.000
    C1728   C    0.22390   0.97322   0.20145   1.000
    C1729   C    0.26799   0.86389   0.16297   1.000
    C1730   C    0.29240   0.86360   0.15870   1.000
    C1731   C    0.26152   0.84085   0.17681   1.000
    C1732   C    0.27927   0.81672   0.18675   1.000
    C1733   C    0.31016   0.83943   0.16851   1.000
    C1734   C    0.30374   0.81647   0.18222   1.000
    C1735   C    0.32264   0.77212   0.28425   1.000
    C1736   C    0.31363   0.76276   0.27520   1.000
    C1737   C    0.24194   0.89950   0.32224   1.000
    C1738   C    0.24672   0.87369   0.33972   1.000
    C1739   C    0.21750   0.91423   0.31889   1.000
    C1740   C    0.19747   0.90339   0.33299   1.000
    C1741   C    0.22638   0.86331   0.35438   1.000
    C1742   C    0.20213   0.87794   0.35111   1.000
    H1743   H    0.47622   0.57747   0.40729   1.000
    H1744   H    0.40917   0.73515   0.34037   1.000
    H1745   H    0.43529   0.69749   0.36649   1.000
    H1746   H    0.38695   0.86577   0.32174   1.000
    H1747   H    0.43236   0.79634   0.29999   1.000
    H1748   H    0.21061   0.95064   0.17176   1.000
    H1749   H    0.23842   0.97918   0.19950   1.000
    H1750   H    0.25374   0.88199   0.15579   1.000
    H1751   H    0.24241   0.84203   0.17998   1.000
    H1752   H    0.32917   0.83819   0.16567   1.000
    H1753   H    0.31797   0.79849   0.18961   1.000
    H1754   H    0.34107   0.77561   0.27242   1.000
    H1755   H    0.32549   0.75951   0.25665   1.000
    H1756   H    0.25730   0.90802   0.31059   1.000
    H1757   H    0.21452   0.93376   0.30483   1.000
    H1758   H    0.22928   0.84363   0.36814   1.000
    H1759   H    0.18711   0.86898   0.36260   1.000
    C1760   C    0.46092   0.54723   0.56944   1.000
    C1761   C    0.39955   0.51247   0.72696   1.000
    C1762   C    0.41455   0.50403   0.70539   1.000
    C1763   C    0.40521   0.42746   0.85054   1.000
    C1764   C    0.40641   0.45167   0.83104   1.000
    C1765   C    0.43068   0.45304   0.81170   1.000
    C1766   C    0.20837   0.64843   0.95726   1.000
    C1767   C    0.22795   0.62494   0.96494   1.000
    C1768   C    0.22390   0.60143   0.97322   1.000
    C1769   C    0.26799   0.70516   0.86389   1.000
    C1770   C    0.29240   0.68530   0.86360   1.000
    C1771   C    0.26152   0.72083   0.84085   1.000
    C1772   C    0.27927   0.71726   0.81672   1.000
    C1773   C    0.31016   0.68190   0.83943   1.000
    C1774   C    0.30374   0.69757   0.81647   1.000
    C1775   C    0.32264   0.62099   0.77212   1.000
    C1776   C    0.31363   0.64841   0.76276   1.000
    C1777   C    0.24194   0.53632   0.89950   1.000
    C1778   C    0.24672   0.53987   0.87369   1.000
    C1779   C    0.21750   0.54938   0.91423   1.000
    C1780   C    0.19747   0.56615   0.90339   1.000
    C1781   C    0.22638   0.55592   0.86331   1.000
    C1782   C    0.20213   0.56881   0.87794   1.000
    H1783   H    0.47622   0.53902   0.57747   1.000
    H1784   H    0.40917   0.51532   0.73515   1.000
    H1785   H    0.43529   0.50073   0.69749   1.000
    H1786   H    0.38695   0.42554   0.86577   1.000
    H1787   H    0.43236   0.47131   0.79634   1.000
    H1788   H    0.21061   0.66698   0.95064   1.000
    H1789   H    0.23842   0.58290   0.97918   1.000
    H1790   H    0.25374   0.70849   0.88199   1.000
    H1791   H    0.24241   0.73557   0.84203   1.000
    H1792   H    0.32917   0.66698   0.83819   1.000
    H1793   H    0.31797   0.69394   0.79849   1.000
    H1794   H    0.34107   0.61090   0.77561   1.000
    H1795   H    0.32549   0.65835   0.75951   1.000
    H1796   H    0.25730   0.52408   0.90802   1.000
    H1797   H    0.21452   0.54690   0.93376   1.000
    H1798   H    0.22928   0.55895   0.84363   1.000
    H1799   H    0.18711   0.58131   0.86898   1.000
    C1800   C    0.42240   0.56944   0.54723   1.000
    C1801   C    0.36102   0.72696   0.51247   1.000
    C1802   C    0.37603   0.70539   0.50403   1.000
    C1803   C    0.31679   0.85054   0.42746   1.000
    C1804   C    0.31089   0.83104   0.45167   1.000
    C1805   C    0.30458   0.81170   0.45304   1.000
    C1806   C    0.18594   0.95726   0.64843   1.000
    C1807   C    0.18218   0.96494   0.62494   1.000
    C1808   C    0.20145   0.97322   0.60143   1.000
    C1809   C    0.16297   0.86389   0.70516   1.000
    C1810   C    0.15870   0.86360   0.68530   1.000
    C1811   C    0.17681   0.84085   0.72083   1.000
    C1812   C    0.18675   0.81672   0.71726   1.000
    C1813   C    0.16851   0.83943   0.68190   1.000
    C1814   C    0.18222   0.81647   0.69757   1.000
    C1815   C    0.28425   0.77212   0.62099   1.000
    C1816   C    0.27520   0.76276   0.64841   1.000
    C1817   C    0.32224   0.89950   0.53632   1.000
    C1818   C    0.33972   0.87369   0.53987   1.000
    C1819   C    0.31889   0.91423   0.54938   1.000
    C1820   C    0.33299   0.90339   0.56615   1.000
    C1821   C    0.35438   0.86331   0.55592   1.000
    C1822   C    0.35111   0.87794   0.56881   1.000
    H1823   H    0.40729   0.57747   0.53902   1.000
    H1824   H    0.34037   0.73515   0.51532   1.000
    H1825   H    0.36649   0.69749   0.50073   1.000
    H1826   H    0.32174   0.86577   0.42554   1.000
    H1827   H    0.29999   0.79634   0.47131   1.000
    H1828   H    0.17176   0.95064   0.66698   1.000
    H1829   H    0.19950   0.97918   0.58290   1.000
    H1830   H    0.15579   0.88199   0.70849   1.000
    H1831   H    0.17998   0.84203   0.73557   1.000
    H1832   H    0.16567   0.83819   0.66698   1.000
    H1833   H    0.18961   0.79849   0.69394   1.000
    H1834   H    0.27242   0.77561   0.61090   1.000
    H1835   H    0.25665   0.75951   0.65835   1.000
    H1836   H    0.31059   0.90802   0.52408   1.000
    H1837   H    0.30483   0.93376   0.54690   1.000
    H1838   H    0.36814   0.84363   0.55895   1.000
    H1839   H    0.36260   0.86898   0.58131   1.000
    C1840   C    0.56944   0.42240   0.46092   1.000
    C1841   C    0.72696   0.36102   0.39955   1.000
    C1842   C    0.70539   0.37603   0.41455   1.000
    C1843   C    0.85054   0.31679   0.40521   1.000
    C1844   C    0.83104   0.31089   0.40641   1.000
    C1845   C    0.81170   0.30458   0.43068   1.000
    C1846   C    0.95726   0.18594   0.20837   1.000
    C1847   C    0.96494   0.18218   0.22795   1.000
    C1848   C    0.97322   0.20145   0.22390   1.000
    C1849   C    0.86389   0.16297   0.26799   1.000
    C1850   C    0.86360   0.15870   0.29240   1.000
    C1851   C    0.84085   0.17681   0.26152   1.000
    C1852   C    0.81672   0.18675   0.27927   1.000
    C1853   C    0.83943   0.16851   0.31016   1.000
    C1854   C    0.81647   0.18222   0.30374   1.000
    C1855   C    0.77212   0.28425   0.32264   1.000
    C1856   C    0.76276   0.27520   0.31363   1.000
    C1857   C    0.89950   0.32224   0.24194   1.000
    C1858   C    0.87369   0.33972   0.24672   1.000
    C1859   C    0.91423   0.31889   0.21750   1.000
    C1860   C    0.90339   0.33299   0.19747   1.000
    C1861   C    0.86331   0.35438   0.22638   1.000
    C1862   C    0.87794   0.35111   0.20213   1.000
    H1863   H    0.57747   0.40729   0.47622   1.000
    H1864   H    0.73515   0.34037   0.40917   1.000
    H1865   H    0.69749   0.36649   0.43529   1.000
    H1866   H    0.86577   0.32174   0.38695   1.000
    H1867   H    0.79634   0.29999   0.43236   1.000
    H1868   H    0.95064   0.17176   0.21061   1.000
    H1869   H    0.97918   0.19950   0.23842   1.000
    H1870   H    0.88199   0.15579   0.25374   1.000
    H1871   H    0.84203   0.17998   0.24241   1.000
    H1872   H    0.83819   0.16567   0.32917   1.000
    H1873   H    0.79849   0.18961   0.31797   1.000
    H1874   H    0.77561   0.27242   0.34107   1.000
    H1875   H    0.75951   0.25665   0.32549   1.000
    H1876   H    0.90802   0.31059   0.25730   1.000
    H1877   H    0.93376   0.30483   0.21452   1.000
    H1878   H    0.84363   0.36814   0.22928   1.000
    H1879   H    0.86898   0.36260   0.18711   1.000
    C1880   C    0.54723   0.46092   0.42240   1.000
    C1881   C    0.51247   0.39955   0.36102   1.000
    C1882   C    0.50403   0.41455   0.37603   1.000
    C1883   C    0.42746   0.40521   0.31679   1.000
    C1884   C    0.45167   0.40641   0.31089   1.000
    C1885   C    0.45304   0.43068   0.30458   1.000
    C1886   C    0.64843   0.20837   0.18594   1.000
    C1887   C    0.62494   0.22795   0.18218   1.000
    C1888   C    0.60143   0.22390   0.20145   1.000
    C1889   C    0.70516   0.26799   0.16297   1.000
    C1890   C    0.68530   0.29240   0.15870   1.000
    C1891   C    0.72083   0.26152   0.17681   1.000
    C1892   C    0.71726   0.27927   0.18675   1.000
    C1893   C    0.68190   0.31016   0.16851   1.000
    C1894   C    0.69757   0.30374   0.18222   1.000
    C1895   C    0.62099   0.32264   0.28425   1.000
    C1896   C    0.64841   0.31363   0.27520   1.000
    C1897   C    0.53632   0.24194   0.32224   1.000
    C1898   C    0.53987   0.24672   0.33972   1.000
    C1899   C    0.54938   0.21750   0.31889   1.000
    C1900   C    0.56615   0.19747   0.33299   1.000
    C1901   C    0.55592   0.22638   0.35438   1.000
    C1902   C    0.56881   0.20213   0.35111   1.000
    H1903   H    0.53902   0.47622   0.40729   1.000
    H1904   H    0.51532   0.40917   0.34037   1.000
    H1905   H    0.50073   0.43529   0.36649   1.000
    H1906   H    0.42554   0.38695   0.32174   1.000
    H1907   H    0.47131   0.43236   0.29999   1.000
    H1908   H    0.66698   0.21061   0.17176   1.000
    H1909   H    0.58290   0.23842   0.19950   1.000
    H1910   H    0.70849   0.25374   0.15579   1.000
    H1911   H    0.73557   0.24241   0.17998   1.000
    H1912   H    0.66698   0.32917   0.16567   1.000
    H1913   H    0.69394   0.31797   0.18961   1.000
    H1914   H    0.61090   0.34107   0.27242   1.000
    H1915   H    0.65835   0.32549   0.25665   1.000
    H1916   H    0.52408   0.25730   0.31059   1.000
    H1917   H    0.54690   0.21452   0.30483   1.000
    H1918   H    0.55895   0.22928   0.36814   1.000
    H1919   H    0.58131   0.18711   0.36260   1.000
    C1920   C    0.37266   0.37266   0.51646   1.000
    C1921   C    0.40303   0.40303   0.49938   1.000
    C1922   C    0.30807   0.30807   0.60680   1.000
    C1923   C    0.28965   0.28965   0.66272   1.000
    C1924   C    0.37266   0.37266   0.73822   1.000
    C1925   C    0.40303   0.40303   0.69455   1.000
    C1926   C    0.30807   0.30807   0.77705   1.000
    C1927   C    0.28965   0.28965   0.75798   1.000
    C1928   C    0.51646   0.73822   0.37266   1.000
    C1929   C    0.49938   0.69455   0.40303   1.000
    C1930   C    0.60680   0.77705   0.30807   1.000
    C1931   C    0.66272   0.75798   0.28965   1.000
    C1932   C    0.73822   0.51646   0.37266   1.000
    C1933   C    0.69455   0.49938   0.40303   1.000
    C1934   C    0.77705   0.60680   0.30807   1.000
    C1935   C    0.75798   0.66272   0.28965   1.000
    C1936   C    0.51646   0.37266   0.37266   1.000
    C1937   C    0.49938   0.40303   0.40303   1.000
    C1938   C    0.60680   0.30807   0.30807   1.000
    C1939   C    0.66272   0.28965   0.28965   1.000
    C1940   C    0.73822   0.37266   0.37266   1.000
    C1941   C    0.69455   0.40303   0.40303   1.000
    C1942   C    0.77705   0.30807   0.30807   1.000
    C1943   C    0.75798   0.28965   0.28965   1.000
    C1944   C    0.37266   0.51646   0.73822   1.000
    C1945   C    0.40303   0.49938   0.69455   1.000
    C1946   C    0.30807   0.60680   0.77705   1.000
    C1947   C    0.28965   0.66272   0.75798   1.000
    C1948   C    0.37266   0.73822   0.51646   1.000
    C1949   C    0.40303   0.69455   0.49938   1.000
    C1950   C    0.30807   0.77705   0.60680   1.000
    C1951   C    0.28965   0.75798   0.66272   1.000
    C1952   C    0.37266   0.51646   0.37266   1.000
    C1953   C    0.40303   0.49938   0.40303   1.000
    C1954   C    0.30807   0.60680   0.30807   1.000
    C1955   C    0.28965   0.66272   0.28965   1.000
    C1956   C    0.37266   0.73822   0.37266   1.000
    C1957   C    0.40303   0.69455   0.40303   1.000
    C1958   C    0.30807   0.77705   0.30807   1.000
    C1959   C    0.28965   0.75798   0.28965   1.000
    C1960   C    0.73822   0.37266   0.51646   1.000
    C1961   C    0.69455   0.40303   0.49938   1.000
    C1962   C    0.77705   0.30807   0.60680   1.000
    C1963   C    0.75798   0.28965   0.66272   1.000
    C1964   C    0.51646   0.37266   0.73822   1.000
    C1965   C    0.49938   0.40303   0.69455   1.000
    C1966   C    0.60680   0.30807   0.77705   1.000
    C1967   C    0.66272   0.28965   0.75798   1.000
    C1968   C    0.87734   0.87734   0.51178   1.000
    C1969   C    0.84697   0.84697   0.55545   1.000
    C1970   C    0.94193   0.94193   0.47295   1.000
    C1971   C    0.96035   0.96035   0.49202   1.000
    C1972   C    0.87734   0.87734   0.73354   1.000
    C1973   C    0.84697   0.84697   0.75062   1.000
    C1974   C    0.94193   0.94193   0.64320   1.000
    C1975   C    0.96035   0.96035   0.58728   1.000
    C1976   C    0.73354   0.51178   0.87734   1.000
    C1977   C    0.75062   0.55545   0.84697   1.000
    C1978   C    0.64320   0.47295   0.94193   1.000
    C1979   C    0.58728   0.49202   0.96035   1.000
    C1980   C    0.51178   0.73354   0.87734   1.000
    C1981   C    0.55545   0.75062   0.84697   1.000
    C1982   C    0.47295   0.64320   0.94193   1.000
    C1983   C    0.49202   0.58728   0.96035   1.000
    C1984   C    0.73354   0.87734   0.51178   1.000
    C1985   C    0.75062   0.84697   0.55545   1.000
    C1986   C    0.64320   0.94193   0.47295   1.000
    C1987   C    0.58728   0.96035   0.49202   1.000
    C1988   C    0.51178   0.87734   0.73354   1.000
    C1989   C    0.55545   0.84697   0.75062   1.000
    C1990   C    0.47295   0.94193   0.64320   1.000
    C1991   C    0.49202   0.96035   0.58728   1.000
    C1992   C    0.87734   0.73354   0.87734   1.000
    C1993   C    0.84697   0.75062   0.84697   1.000
    C1994   C    0.94193   0.64320   0.94193   1.000
    C1995   C    0.96035   0.58728   0.96035   1.000
    C1996   C    0.87734   0.51178   0.87734   1.000
    C1997   C    0.84697   0.55545   0.84697   1.000
    C1998   C    0.94193   0.47295   0.94193   1.000
    C1999   C    0.96035   0.49202   0.96035   1.000
    C2000   C    0.87734   0.73354   0.51178   1.000
    C2001   C    0.84697   0.75062   0.55545   1.000
    C2002   C    0.94193   0.64320   0.47295   1.000
    C2003   C    0.96035   0.58728   0.49202   1.000
    C2004   C    0.87734   0.51178   0.73354   1.000
    C2005   C    0.84697   0.55545   0.75062   1.000
    C2006   C    0.94193   0.47295   0.64320   1.000
    C2007   C    0.96035   0.49202   0.58728   1.000
    C2008   C    0.51178   0.87734   0.87734   1.000
    C2009   C    0.55545   0.84697   0.84697   1.000
    C2010   C    0.47295   0.94193   0.94193   1.000
    C2011   C    0.49202   0.96035   0.96035   1.000
    C2012   C    0.73354   0.87734   0.87734   1.000
    C2013   C    0.75062   0.84697   0.84697   1.000
    C2014   C    0.64320   0.94193   0.94193   1.000
    C2015   C    0.58728   0.96035   0.96035   1.000
    C2016   C    0.44188   0.44188   0.53555   1.000
    C2017   C    0.44188   0.44188   0.58069   1.000
    C2018   C    0.53555   0.58069   0.44188   1.000
    C2019   C    0.58069   0.53555   0.44188   1.000
    C2020   C    0.53555   0.44188   0.44188   1.000
    C2021   C    0.58069   0.44188   0.44188   1.000
    C2022   C    0.44188   0.53555   0.58069   1.000
    C2023   C    0.44188   0.58069   0.53555   1.000
    C2024   C    0.44188   0.53555   0.44188   1.000
    C2025   C    0.44188   0.58069   0.44188   1.000
    C2026   C    0.58069   0.44188   0.53555   1.000
    C2027   C    0.53555   0.44188   0.58069   1.000
    C2028   C    0.80812   0.80812   0.66931   1.000
    C2029   C    0.80812   0.80812   0.71445   1.000
    C2030   C    0.71445   0.66931   0.80812   1.000
    C2031   C    0.66931   0.71445   0.80812   1.000
    C2032   C    0.71445   0.80812   0.66931   1.000
    C2033   C    0.66931   0.80812   0.71445   1.000
    C2034   C    0.80812   0.71445   0.80812   1.000
    C2035   C    0.80812   0.66931   0.80812   1.000
    C2036   C    0.80812   0.71445   0.66931   1.000
    C2037   C    0.80812   0.66931   0.71445   1.000
    C2038   C    0.66931   0.80812   0.80812   1.000
    C2039   C    0.71445   0.80812   0.80812   1.000
loop_
    _geom_bond_atom_site_label_1
    _geom_bond_atom_site_label_2
    _geom_bond_distance
    _geom_bond_site_symmetry_2
    _ccdc_geom_bond_type
    C1155  C1154     1.41016      .   S
    C1155  C1158     1.40076      .   S
    C1115  C1114     1.41016      .   S
    C1115  C1118     1.40111      .   S
    C600   C599      1.41016      .   S
    C600   C603      1.40111      .   S
    C761   C760      1.41016      .   S
    C761   C764      1.40076      .   S
    C1338  C1337     1.41016      .   S
    C1338  C1341     1.40113      .   S
    C921   C920      1.41016      .   S
    C921   C924      1.40113      .   S
    H1351  C1331     1.08341  1_554   S
    H934   C914      1.08341  1_554   S
    H1168  C1148     1.08292  1_554   S
    H613   C593      1.08299  1_554   S
    H774   C754      1.08292  1_554   S
    H1128  C1108     1.08299  1_554   S
    C599   C601      1.40238      .   S
    C599   H618      1.08281  1_554   S
    C1337  C1339     1.40238      .   S
    C1337  H1356     1.08279  1_554   S
    C1114  C1116     1.40238      .   S
    C1114  H1133     1.08281  1_554   S
    C760   C762      1.40238      .   S
    C760   H779      1.08317  1_554   S
    C1154  C1156     1.40238      .   S
    C1154  H1173     1.08317  1_554   S
    C920   C922      1.40238      .   S
    C920   H939      1.08279  1_554   S
    H1349  C1328     1.08252      .   S
    H932   C911      1.08252      .   S
    H611   C590      1.08252      .   S
    H1166  C1145     1.08252      .   S
    H1126  C1105     1.08252      .   S
    H772   C751      1.08252      .   S
    H941   C924      1.08312      .   S
    H1175  C1158     1.08353      .   S
    H781   C764      1.08353      .   S
    H1135  C1118     1.08292      .   S
    H620   C603      1.08292      .   S
    H1358  C1341     1.08312      .   S
    C1144  C1145     1.41158      .   S
    C1144  C1143     1.41084      .   S
    C910   C911      1.41113      .   S
    C910   C909      1.41127      .   S
    C750   C751      1.41158      .   S
    C750   C749      1.41084      .   S
    C1327  C1328     1.41113      .   S
    C1327  C1326     1.41127      .   S
    C589   C590      1.41173      .   S
    C589   C588      1.41100      .   S
    C1104  C1105     1.41173      .   S
    C1104  C1103     1.41100      .   S
    C1341  C1342     1.39027      .   S
    C924   C925      1.39027      .   S
    C603   C604      1.39027      .   S
    C1158  C1159     1.39027      .   S
    C764   C765      1.39027      .   S
    C1118  C1119     1.39027      .   S
    C911   C1185     1.41076      .   S
    C1145  C951      1.41076      .   S
    C590   C1065     1.41076      .   S
    C1328  C791      1.41076      .   S
    C1105  C630      1.41076      .   S
    C751   C1288     1.41076      .   S
    C1156  H1174     1.08273      .   S
    C1156  C1157     1.40426      .   S
    C1116  H1134     1.08334      .   S
    C1116  C1117     1.40426      .   S
    C1339  H1357     1.08313      .   S
    C1339  C1340     1.40426      .   S
    C922   H940      1.08313      .   S
    C922   C923      1.40426      .   S
    C762   H780      1.08273      .   S
    C762   C763      1.40426      .   S
    C601   H619      1.08334      .   S
    C601   C602      1.40426      .   S
    H1125  C1103     1.08272      .   S
    H610   C588      1.08272      .   S
    H771   C749      1.08286      .   S
    H1348  C1326     1.08332      .   S
    H931   C909      1.08332      .   S
    H1165  C1143     1.08286      .   S
    C909   C1183     1.40950      .   S
    C588   C1063     1.40950      .   S
    C749   C1286     1.40950      .   S
    C1326  C789      1.40950      .   S
    C1103  C628      1.40950      .   S
    C1143  C949      1.40950      .   S
    C604   C602      1.40878      .   S
    C604   H621      1.08289      .   S
    C925   C923      1.40857      .   S
    C925   H942      1.08287      .   S
    C765   C763      1.40817      .   S
    C765   H782      1.08327      .   S
    C1119  C1117     1.40878      .   S
    C1119  H1136     1.08289      .   S
    C1159  C1157     1.40817      .   S
    C1159  H1176     1.08327      .   S
    C1342  C1340     1.40857      .   S
    C1342  H1359     1.08287      .   S
    C1185  H1206     1.08252      .   S
    C1185  C1184     1.41113      .   S
    C791   H812      1.08252      .   S
    C791   C790      1.41113      .   S
    C630   H334      1.08252      .   S
    C630   C629      1.41140      .   S
    C1288  H1309     1.08252      .   S
    C1288  C1287     1.41158      .   S
    C1065  H1086     1.08252      .   S
    C1065  C1064     1.41140      .   S
    C951   H972      1.08252      .   S
    C951   C950      1.41158      .   S
    H1313  C1294     1.08289      .   S
    H1090  C1071     1.08230      .   S
    H816   C797      1.08263      .   S
    H1210  C1191     1.08263      .   S
    H338   C636      1.08230      .   S
    H976   C957      1.08289      .   S
    C634   C636      1.41009      .   S
    C634   C633      1.41161      .   S
    C1189  C1191     1.41009      .   S
    C1189  C1188     1.41131      .   S
    C795   C797      1.41009      .   S
    C795   C794      1.41131      .   S
    C955   C957      1.41009      .   S
    C955   C954      1.41102      .   S
    C1292  C1294     1.41009      .   S
    C1292  C1291     1.41102      .   S
    C1069  C1071     1.41009      .   S
    C1069  C1068     1.41161      .   S
    C1063  C1064     1.41067      .   S
    C1063  H1085     1.08302      .   S
    C1183  C1184     1.41127      .   S
    C1183  H1205     1.08332      .   S
    C949   C950      1.41084      .   S
    C949   H971      1.08286      .   S
    C1286  C1287     1.41084      .   S
    C1286  H1308     1.08286      .   S
    C628   C629      1.41067      .   S
    C628   H333      1.08302      .   S
    C789   C790      1.41127      .   S
    C789   H811      1.08332      .   S
    C797   C796      1.40647      .   S
    C636   C635      1.40647      .   S
    C1191  C1190     1.40647      .   S
    C1071  C1070     1.40647      .   S
    C1294  C1293     1.40647      .   S
    C957   C956      1.40647      .   S
    H1311  C1291     1.08292  1_455   S
    H336   C633      1.08218      .   S
    H814   C794      1.08341  1_455   S
    H974   C954      1.08292  1_545   S
    H1088  C1068     1.08218      .   S
    H1208  C1188     1.08341  1_545   S
    C633   C631      1.41201      .   S
    C1188  C1186     1.41201      .   S
    C954   C952      1.41201      .   S
    C794   C792      1.41201      .   S
    C1068  C1066     1.41201      .   S
    C1291  C1289     1.41201      .   S
    C796   H815      1.08286      .   S
    C796   C793      1.41033      .   S
    C1190  H1209     1.08286      .   S
    C1190  C1187     1.41033      .   S
    C1070  H1089     1.08224      .   S
    C1070  C1067     1.41033      .   S
    C1293  H1312     1.08261      .   S
    C1293  C1290     1.41033      .   S
    C635   H337      1.08224      .   S
    C635   C632      1.41033      .   S
    C956   H975      1.08261      .   S
    C956   C953      1.41033      .   S
    C631   C632      1.41150      .   S
    C631   H335      1.08234      .   S
    C792   C793      1.41088      .   S
    C792   H813      1.08234      .   S
    C1066  C1067     1.41150      .   S
    C1066  H1087     1.08234      .   S
    C1289  C1290     1.41116      .   S
    C1289  H1310     1.08234      .   S
    C1186  C1187     1.41088      .   S
    C1186  H1207     1.08234      .   S
    C952   C953      1.41116      .   S
    C952   H973      1.08234      .   S
    H375   C354      1.08234      .   S
    H1590  C1569     1.08234      .   S
    H243   C222      1.08234      .   S
    H116   C95       1.08234      .   S
    H1910  C1889     1.08234      .   S
    H1750  C1729     1.08234      .   S
    C355   C354      1.41116      .   S
    C355   C358      1.41033      .   S
    C1730  C1729     1.41088      .   S
    C1730  C1733     1.41033      .   S
    C1570  C1569     1.41150      .   S
    C1570  C1573     1.41033      .   S
    C223   C222      1.41088      .   S
    C223   C226      1.41033      .   S
    C1890  C1889     1.41116      .   S
    C1890  C1893     1.41033      .   S
    C96    C95       1.41150      .   S
    C96    C99       1.41033      .   S
    C354   C356      1.41201      .   S
    C1569  C1571     1.41201      .   S
    C222   C224      1.41201      .   S
    C95    C97       1.41201      .   S
    C1889  C1891     1.41201      .   S
    C1729  C1731     1.41201      .   S
    H118   C99       1.08224      .   S
    H377   C358      1.08261      .   S
    H1752  C1733     1.08286      .   S
    H1592  C1573     1.08224      .   S
    H245   C226      1.08286      .   S
    H1912  C1893     1.08261      .   S
    C1893  C1894     1.40647      .   S
    C99    C100      1.40647      .   S
    C358   C359      1.40647      .   S
    C1573  C1574     1.40647      .   S
    C1733  C1734     1.40647      .   S
    C226   C227      1.40647      .   S
    H114   C92       1.08302      .   S
    H1588  C1566     1.08302      .   S
    H373   C351      1.08286      .   S
    H241   C219      1.08332      .   S
    H1748  C1726     1.08332      .   S
    H1908  C1886     1.08286      .   S
    C356   H376      1.08292      .   S
    C356   C357      1.41102      .   S
    C1891  H1911     1.08292      .   S
    C1891  C1892     1.41102      .   S
    C97    H117      1.08218      .   S
    C97    C98       1.41161      .   S
    C1731  H1751     1.08341      .   S
    C1731  C1732     1.41131      .   S
    C1571  H1591     1.08218      .   S
    C1571  C1572     1.41161      .   S
    C224   H244      1.08341      .   S
    C224   C225      1.41131      .   S
    C1567  C1566     1.41067      .   S
    C1567  C1568     1.41140      .   S
    C93    C92       1.41067      .   S
    C93    C94       1.41140      .   S
    C1727  C1726     1.41127      .   S
    C1727  C1728     1.41113      .   S
    C352   C351      1.41084      .   S
    C352   C353      1.41158      .   S
    C220   C219      1.41127      .   S
    C220   C221      1.41113      .   S
    C1887  C1886     1.41084      .   S
    C1887  C1888     1.41158      .   S
    C1734  C1732     1.41009      .   S
    C1734  H1753     1.08263      .   S
    C1894  C1892     1.41009      .   S
    C1894  H1913     1.08289      .   S
    C1574  C1572     1.41009      .   S
    C1574  H1593     1.08230      .   S
    C227   C225      1.41009      .   S
    C227   H246      1.08263      .   S
    C359   C357      1.41009      .   S
    C359   H378      1.08289      .   S
    C100   C98       1.41009      .   S
    C100   H119      1.08230      .   S
    C351   C1686     1.40950      .   S
    C1726  C391      1.40950      .   S
    C92    C1526     1.40950      .   S
    C1566  C135      1.40950      .   S
    C219   C1846     1.40950      .   S
    C1886  C179      1.40950      .   S
    H1559  C1542     1.08289      .   S
    H83    C151      1.08289      .   S
    H424   C407      1.08287      .   S
    H212   C195      1.08327      .   S
    H1719  C1702     1.08327      .   S
    H1879  C1862     1.08287      .   S
    C1700  C1702     1.40817      .   S
    C1700  C1699     1.40426      .   S
    C1860  C1862     1.40857      .   S
    C1860  C1859     1.40426      .   S
    C193   C195      1.40817      .   S
    C193   C192      1.40426      .   S
    C149   C151      1.40878      .   S
    C149   C148      1.40426      .   S
    C405   C407      1.40857      .   S
    C405   C404      1.40426      .   S
    C1540  C1542     1.40878      .   S
    C1540  C1539     1.40426      .   S
    H242   C221      1.08252      .   S
    H115   C94       1.08252      .   S
    H1589  C1568     1.08252      .   S
    H374   C353      1.08252      .   S
    H1749  C1728     1.08252      .   S
    H1909  C1888     1.08252      .   S
    C94    C1528     1.41076      .   S
    C221   C1848     1.41076      .   S
    C1888  C181      1.41076      .   S
    C1568  C137      1.41076      .   S
    C353   C1688     1.41076      .   S
    C1728  C393      1.41076      .   S
    C1862  C1861     1.39027      .   S
    C407   C406      1.39027      .   S
    C1702  C1701     1.39027      .   S
    C1542  C1541     1.39027      .   S
    C151   C150      1.39027      .   S
    C195   C194      1.39027      .   S
    C1526  H1548     1.08272      .   S
    C1526  C1527     1.41100      .   S
    C135   H157      1.08272      .   S
    C135   C136      1.41100      .   S
    C179   H201      1.08286      .   S
    C179   C180      1.41084      .   S
    C1846  H1868     1.08332      .   S
    C1846  C1847     1.41127      .   S
    C391   H413      1.08332      .   S
    C391   C392      1.41127      .   S
    C1686  H1708     1.08286      .   S
    C1686  C1687     1.41084      .   S
    H1717  C1699     1.08273      .   S
    H210   C192      1.08273      .   S
    H81    C148      1.08334      .   S
    H1557  C1539     1.08334      .   S
    H422   C404      1.08313      .   S
    H1877  C1859     1.08313      .   S
    C404   C402      1.40238      .   S
    C148   C146      1.40238      .   S
    C1539  C1537     1.40238      .   S
    C1859  C1857     1.40238      .   S
    C1699  C1697     1.40238      .   S
    C192   C190      1.40238      .   S
    C1848  C1847     1.41113      .   S
    C1848  H1869     1.08252      .   S
    C393   C392      1.41113      .   S
    C393   H414      1.08252      .   S
    C1528  C1527     1.41173      .   S
    C1528  H1549     1.08252      .   S
    C181   C180      1.41158      .   S
    C181   H202      1.08252      .   S
    C137   C136      1.41173      .   S
    C137   H158      1.08252      .   S
    C1688  C1687     1.41158      .   S
    C1688  H1709     1.08252      .   S
    C194   H211      1.08353      .   S
    C194   C191      1.40076      .   S
    C1701  H1718     1.08353      .   S
    C1701  C1698     1.40076      .   S
    C1861  H1878     1.08312      .   S
    C1861  C1858     1.40113      .   S
    C406   H423      1.08312      .   S
    C406   C403      1.40113      .   S
    C1541  H1558     1.08292      .   S
    C1541  C1538     1.40111      .   S
    C150   H82       1.08292      .   S
    C150   C147      1.40111      .   S
    C1857  C1858     1.41016      .   S
    C1857  H1876     1.08279      .   S
    C146   C147      1.41016      .   S
    C146   H80       1.08281      .   S
    C190   C191      1.41016      .   S
    C190   H209      1.08317      .   S
    C1537  C1538     1.41016      .   S
    C1537  H1556     1.08281      .   S
    C402   C403      1.41016      .   S
    C402   H421      1.08279      .   S
    C1697  C1698     1.41016      .   S
    C1697  H1716     1.08317      .   S
    H1711  C1691     1.08292      .   S
    H416   C396      1.08341      .   S
    H160   C140      1.08299      .   S
    H1551  C1531     1.08299      .   S
    H1871  C1851     1.08341      .   S
    H204   C184      1.08292      .   S
    H1710  C1689     1.08234      .   S
    H203   C182      1.08234      .   S
    H1550  C1529     1.08234      .   S
    H1870  C1849     1.08234      .   S
    H159   C138      1.08234      .   S
    H415   C394      1.08234      .   S
    H1915  C1896     1.08308      .   S
    H248   C229      1.08308      .   S
    H1755  C1736     1.08308      .   S
    H121   C102      1.08308      .   S
    H380   C361      1.08308      .   S
    H1595  C1576     1.08308      .   S
    C1691  C1689     1.41201      .   S
    C1691  C1692     1.41102      .   S
    C1531  C1529     1.41201      .   S
    C1531  C1532     1.41150      .   S
    C1851  C1849     1.41201      .   S
    C1851  C1852     1.41131      .   S
    C396   C394      1.41201      .   S
    C396   C397      1.41131      .   S
    C140   C138      1.41201      .   S
    C140   C141      1.41150      .   S
    C184   C182      1.41201      .   S
    C184   C185      1.41102      .   S
    C1689  C1690     1.41116      .   S
    C1849  C1850     1.41088      .   S
    C1529  C1530     1.41110      .   S
    C182   C183      1.41116      .   S
    C138   C139      1.41110      .   S
    C394   C395      1.41088      .   S
    H1046  C1025     1.08252      .   S
    H1429  C1408     1.08252      .   S
    H692   C671      1.08252      .   S
    H1246  C1225     1.08252      .   S
    H852   C831      1.08252      .   S
    H531   C513      1.08252      .   S
    H1594  C1575     1.08260      .   S
    H247   C228      1.08260      .   S
    H1754  C1735     1.08260      .   S
    H379   C360      1.08260      .   S
    H120   C101      1.08260      .   S
    H1914  C1895     1.08260      .   S
    C1896  C1895     1.40693      .   S
    C1896  C1939     1.41318      .   S
    C229   C228      1.40693      .   S
    C229   C1943     1.41318      .   S
    C1736  C1735     1.40693      .   S
    C1736  C1959     1.41318      .   S
    C361   C360      1.40693      .   S
    C361   C1955     1.41318      .   S
    C102   C101      1.40693      .   S
    C102   C1931     1.41318      .   S
    C1576  C1575     1.40693      .   S
    C1576  C1935     1.41318      .   S
    C1025  C513      1.41076      .   S
    C1025  C1024     1.41113      .   S
    C513   C512      1.41113      .   S
    C671   C1408     1.41076      .   S
    C671   C670      1.41140      .   S
    C1225  C831      1.41076      .   S
    C1225  C1224     1.41140      .   S
    C831   C830      1.41173      .   S
    C1408  C1407     1.41173      .   S
    C1692  C1694     1.41009      .   S
    C185   C187      1.41009      .   S
    C1852  C1854     1.41009      .   S
    C141   C143      1.41009      .   S
    C397   C399      1.41009      .   S
    C1532  C1534     1.41009      .   S
    C1895  C1938     1.40896      .   S
    C1575  C1934     1.40868      .   S
    C101   C1930     1.40868      .   S
    C360   C1954     1.40896      .   S
    C1735  C1958     1.40869      .   S
    C228   C1942     1.40869      .   S
    C1407  C1406     1.41100      .   S
    C1224  C1223     1.41067      .   S
    C1024  C1023     1.41127      .   S
    C512   C511      1.41127      .   S
    C670   C669      1.41067      .   S
    C830   C829      1.41100      .   S
    C1939  C189      1.41318      .   S
    C1955  C1696     1.41318      .   S
    C1935  C145      1.41318      .   S
    C1931  C1536     1.41318      .   S
    C1943  C1856     1.41318      .   S
    C1959  C401      1.41318      .   S
    C1690  C1693     1.41033      .   S
    C139   C142      1.41033      .   S
    C395   C398      1.41033      .   S
    C1850  C1853     1.41033      .   S
    C1530  C1533     1.41033      .   S
    C183   C186      1.41033      .   S
    C1223  C829      1.40950      .   S
    C1223  H1245     1.08302      .   S
    C1406  C669      1.40950      .   S
    C1406  H1428     1.08272      .   S
    C829   H851      1.08272      .   S
    C669   H691      1.08302      .   S
    C511   C1023     1.40950      .   S
    C511   H530      1.08332      .   S
    C1023  H1045     1.08332      .   S
    H1587  C1565     1.08261      .   S
    H240   C218      1.08261      .   S
    H372   C350      1.08261      .   S
    H1747  C1725     1.08261      .   S
    H1907  C1885     1.08261      .   S
    H113   C91       1.08261      .   S
    C1694  C1693     1.40647      .   S
    C1694  H1713     1.08289      .   S
    C1854  C1853     1.40647      .   S
    C1854  H1873     1.08263      .   S
    C399   C398      1.40647      .   S
    C399   H418      1.08263      .   S
    C1534  C1533     1.40647      .   S
    C1534  H1553     1.08243      .   S
    C187   C186      1.40647      .   S
    C187   H206      1.08289      .   S
    C143   C142      1.40647      .   S
    C143   H162      1.08243      .   S
    C91    C1725     1.40510      .   S
    C91    C90       1.40882      .   S
    C350   C1885     1.40510      .   S
    C350   C349      1.40821      .   S
    C1565  C218      1.40510      .   S
    C1565  C1564     1.40882      .   S
    C1885  C1884     1.40821      .   S
    C1725  C1724     1.40850      .   S
    C218   C217      1.40850      .   S
    H123   C105      1.08314      .   S
    H1597  C1579     1.08314      .   S
    H1917  C1899     1.08273      .   S
    H1757  C1739     1.08313      .   S
    H382   C364      1.08273      .   S
    H250   C232      1.08313      .   S
    C1942  C1855     1.40869      .   S
    C1954  C1695     1.40896      .   S
    C1938  C188      1.40896      .   S
    C1934  C144      1.40922      .   S
    C1930  C1535     1.40922      .   S
    C1958  C400      1.40869      .   S
    C142   H161      1.08264      .   S
    C398   H417      1.08286      .   S
    C186   H205      1.08261      .   S
    C1533  H1552     1.08264      .   S
    C1853  H1872     1.08286      .   S
    C1693  H1712     1.08261      .   S
    H1916  C1897     1.08317      .   S
    H249   C230      1.08279      .   S
    H1596  C1577     1.08330      .   S
    H1756  C1737     1.08279      .   S
    H381   C362      1.08317      .   S
    H122   C103      1.08330      .   S
    C217   C216      1.40665      .   S
    C1564  C1563     1.40697      .   S
    C349   C348      1.40726      .   S
    C1884  C1883     1.40726      .   S
    C90    C89       1.40697      .   S
    C1724  C1723     1.40665      .   S
    C189   C188      1.40693      .   S
    C189   H208      1.08308      .   S
    C401   C400      1.40693      .   S
    C401   H420      1.08308      .   S
    C1536  C1535     1.40693      .   S
    C1536  H1555     1.08308      .   S
    C145   C144      1.40693      .   S
    C145   H164      1.08308      .   S
    C1696  C1695     1.40693      .   S
    C1696  H1715     1.08308      .   S
    C1856  C1855     1.40693      .   S
    C1856  H1875     1.08308      .   S
    H1254  C1236     1.08314      .   S
    H700   C682      1.08314      .   S
    H539   C521      1.08313      .   S
    H860   C842      1.08334      .   S
    H1054  C1036     1.08313      .   S
    H1437  C1419     1.08334      .   S
    C89    C1723     1.39819      .   S
    C89    H112      1.08257      .   S
    C216   C1563     1.39819      .   S
    C216   H239      1.08257      .   S
    C1883  C348      1.39819      .   S
    C1883  H1906     1.08257      .   S
    C1563  H1586     1.08257      .   S
    C348   H371      1.08257      .   S
    C1723  H1746     1.08257      .   S
    C364   C362      1.40238      .   S
    C364   C365      1.40426      .   S
    C232   C230      1.40238      .   S
    C232   C233      1.40426      .   S
    C1739  C1737     1.40238      .   S
    C1739  C1740     1.40426      .   S
    C105   C103      1.40238      .   S
    C105   C106      1.40426      .   S
    C1899  C1897     1.40238      .   S
    C1899  C1900     1.40426      .   S
    C1579  C1577     1.40238      .   S
    C1579  C1580     1.40426      .   S
    C1577  C1578     1.41016      .   S
    C103   C104      1.41016      .   S
    C1737  C1738     1.41016      .   S
    C230   C231      1.41016      .   S
    C362   C363      1.41016      .   S
    C1897  C1898     1.41016      .   S
    C1535  H1554     1.08260      .   S
    C1695  H1714     1.08260      .   S
    C188   H207      1.08260      .   S
    C144   H163      1.08260      .   S
    C1855  H1874     1.08260      .   S
    C400   H419      1.08260      .   S
    C1900  C1902     1.40817      .   S
    C1740  C1742     1.40857      .   S
    C106   C108      1.40860      .   S
    C1580  C1582     1.40860      .   S
    C233   C235      1.40857      .   S
    C365   C367      1.40817      .   S
    C1036  C1037     1.40426      .   S
    C1036  C1034     1.40238      .   S
    C842   C843      1.40426      .   S
    C842   C840      1.40238      .   S
    C521   C522      1.40426      .   S
    C521   C265      1.40238      .   S
    C1419  C1420     1.40426      .   S
    C1419  C1417     1.40238      .   S
    C1236  C1237     1.40426      .   S
    C1236  C1234     1.40238      .   S
    C682   C683      1.40426      .   S
    C682   C680      1.40238      .   S
    C363   C366      1.40076      .   S
    C1578  C1581     1.40062      .   S
    C1898  C1901     1.40076      .   S
    C104   C107      1.40062      .   S
    C231   C234      1.40113      .   S
    C1738  C1741     1.40113      .   S
    H237   C214      1.08306      .   S
    H1744  C1721     1.08306      .   S
    H1904  C1881     1.08296      .   S
    H369   C346      1.08296      .   S
    H110   C87       1.08294      .   S
    H1584  C1561     1.08294      .   S
    H1253  C1234     1.08330      .   S
    H699   C680      1.08330      .   S
    H538   C265      1.08279  1_565   S
    H859   C840      1.08281  1_655   S
    H1053  C1034     1.08279  1_655   S
    H1436  C1417     1.08281  1_565   S
    C683   C685      1.40860      .   S
    C843   C845      1.40878      .   S
    C1420  C1422     1.40878      .   S
    C1037  C1039     1.40857      .   S
    C1237  C1239     1.40860      .   S
    C522   C524      1.40857      .   S
    C1234  C1235     1.41016      .   S
    C1034  C1035     1.41016      .   S
    C680   C681      1.41016      .   S
    C1417  C1418     1.41016      .   S
    C265   C520      1.41016      .   S
    C840   C841      1.41016      .   S
    C235   C234      1.39027      .   S
    C235   H252      1.08287      .   S
    C367   C366      1.39027      .   S
    C367   H384      1.08327      .   S
    C1582  C1581     1.39027      .   S
    C1582  H1599     1.08338      .   S
    C1742  C1741     1.39027      .   S
    C1742  H1759     1.08287      .   S
    C108   C107      1.39027      .   S
    C108   H125      1.08338      .   S
    C1902  C1901     1.39027      .   S
    C1902  H1919     1.08327      .   S
    C1901  H1918     1.08353      .   S
    C107   H124      1.08312      .   S
    C1741  H1758     1.08312      .   S
    C366   H383      1.08353      .   S
    C234   H251      1.08312      .   S
    C1581  H1598     1.08312      .   S
    C1561  C1932     1.40603      .   S
    C1561  C1562     1.39584      .   S
    C1721  C1956     1.40603      .   S
    C1721  C1722     1.39584      .   S
    C214   C1940     1.40603      .   S
    C214   C215      1.39584      .   S
    C87    C1928     1.40603      .   S
    C87    C88       1.39584      .   S
    C346   C1952     1.40603      .   S
    C346   C347      1.39584      .   S
    C1881  C1936     1.40603      .   S
    C1881  C1882     1.39584      .   S
    H1745  C1722     1.08338      .   S
    H238   C215      1.08338      .   S
    H1905  C1882     1.08338      .   S
    H1585  C1562     1.08338      .   S
    H370   C347      1.08338      .   S
    H111   C88       1.08338      .   S
    H1247  C1226     1.08234      .   S
    H853   C832      1.08234      .   S
    H1047  C1026     1.08234      .   S
    H532   C257      1.08234      .   S
    H693   C672      1.08234      .   S
    H1430  C1409     1.08234      .   S
    C1039  H1056     1.08287      .   S
    C1039  C1038     1.39027      .   S
    C685   H702      1.08338      .   S
    C685   C684      1.39027      .   S
    C524   H541      1.08287      .   S
    C524   C523      1.39027      .   S
    C845   H862      1.08289      .   S
    C845   C844      1.39027      .   S
    C1422  H1439     1.08289      .   S
    C1422  C1421     1.39027      .   S
    C1239  H1256     1.08338      .   S
    C1239  C1238     1.39027      .   S
    C1940  C1841     1.40603      .   S
    C1956  C386      1.40603      .   S
    C1936  C174      1.40603      .   S
    C1932  C127      1.40603      .   S
    C1928  C1521     1.40603      .   S
    C1952  C1681     1.40603      .   S
    C1722  C1957     1.40567      .   S
    C88    C1929     1.40557      .   S
    C347   C1953     1.40558      .   S
    C215   C1941     1.40567      .   S
    C1562  C1933     1.40557      .   S
    C1882  C1937     1.40558      .   S
    C1418  C1421     1.40111      .   S
    C681   C684      1.40062      .   S
    C1235  C1238     1.40062      .   S
    C520   C523      1.40113      .   S
    C841   C844      1.40111      .   S
    C1035  C1038     1.40113      .   S
    H689   C666      1.08257      .   S
    H528   C508      1.08257      .   S
    H1043  C1020     1.08257      .   S
    H849   C826      1.08257      .   S
    H1243  C1220     1.08257      .   S
    H1426  C1403     1.08257      .   S
    C832   C833      1.41110      .   S
    C832   C834      1.41201      .   S
    C1409  C1410     1.41110      .   S
    C1409  C1411     1.41201      .   S
    C257   C258      1.41088      .   S
    C257   C259      1.41201      .   S
    C1026  C1027     1.41088      .   S
    C1026  C1028     1.41201      .   S
    C1226  C1227     1.41150      .   S
    C1226  C1228     1.41201      .   S
    C672   C673      1.41150      .   S
    C672   C674      1.41201      .   S
    C1410  C1413     1.41033      .   S
    C833   C836      1.41033      .   S
    C1027  C1030     1.41033      .   S
    C1227  C1230     1.41033      .   S
    C673   C676      1.41033      .   S
    C258   C261      1.41033      .   S
    C1421  H1438     1.08292      .   S
    C1038  H1055     1.08312      .   S
    C844   H861      1.08292      .   S
    C1238  H1255     1.08312      .   S
    C684   H701      1.08312      .   S
    C523   H540      1.08312      .   S
    H1866  C1843     1.08257      .   S
    H1546  C1523     1.08257      .   S
    H155   C64       1.08257      .   S
    H199   C176      1.08257      .   S
    H411   C388      1.08257      .   S
    H1706  C1683     1.08257      .   S
    C666   C1020     1.39819      .   S
    C666   C667      1.40697      .   S
    C508   C1220     1.39819      .   S
    C508   C509      1.40665      .   S
    C826   C1403     1.39819      .   S
    C826   C827      1.40707      .   S
    C1403  C1404     1.40707      .   S
    C1220  C1221     1.40697      .   S
    C1020  C1021     1.40665      .   S
    C127   H153      1.08349      .   S
    C127   C63       1.39584      .   S
    C1681  H1704     1.08296      .   S
    C1681  C1682     1.39584      .   S
    C386   H409      1.08306      .   S
    C386   C387      1.39584      .   S
    C1841  H1864     1.08306      .   S
    C1841  C1842     1.39584      .   S
    C1521  H1544     1.08349      .   S
    C1521  C1522     1.39584      .   S
    C174   H197      1.08296      .   S
    C174   C175      1.39584      .   S
    C1937  C175      1.40558      .   S
    C1941  C1842     1.40567      .   S
    C1957  C387      1.40567      .   S
    C1929  C1522     1.40611      .   S
    C1933  C63       1.40611      .   S
    C1953  C1682     1.40558      .   S
    C64    C133      1.40707      .   S
    C64    C1643     1.39819      .   S
    C388   C389      1.40665      .   S
    C388   C1803     1.39819      .   S
    C1843  C1844     1.40665      .   S
    C1843  C428      1.39819      .   S
    C1523  C1524     1.40707      .   S
    C1523  C300      1.39819      .   S
    C1683  C1684     1.40726      .   S
    C1683  C3        1.39819      .   S
    C176   C177      1.40726      .   S
    C176   C1483     1.39819      .   S
    C177   C178      1.40821      .   S
    C1684  C1685     1.40821      .   S
    C133   C134      1.40840      .   S
    C1844  C1845     1.40850      .   S
    C389   C390      1.40850      .   S
    C1524  C1525     1.40840      .   S
    H1743  C1720     1.08337      .   S
    H109   C86       1.08295      .   S
    H236   C213      1.08337      .   S
    H1903  C1880     1.08308      .   S
    H368   C345      1.08308      .   S
    H1583  C1560     1.08295      .   S
    H533   C259      1.08341  1_545   S
    H1248  C1228     1.08218      .   S
    H854   C834      1.08299  1_455   S
    H1048  C1028     1.08341  1_455   S
    H694   C674      1.08218      .   S
    H1431  C1411     1.08299  1_545   S
    C1028  C1029     1.41131      .   S
    C1228  C1229     1.41161      .   S
    C259   C260      1.41131      .   S
    C1411  C1412     1.41150      .   S
    C834   C835      1.41150      .   S
    C674   C675      1.41161      .   S
    C261   H534      1.08286      .   S
    C261   C262      1.40647      .   S
    C836   H855      1.08264      .   S
    C836   C837      1.40647      .   S
    C676   H695      1.08224      .   S
    C676   C677      1.40647      .   S
    C1230  H1249     1.08224      .   S
    C1230  C1231     1.40647      .   S
    C1030  H1049     1.08286      .   S
    C1030  C1031     1.40647      .   S
    C1413  H1432     1.08264      .   S
    C1413  C1414     1.40647      .   S
    C175   H198      1.08338      .   S
    C1682  H1705     1.08338      .   S
    C63    H154      1.08338      .   S
    C1842  H1865     1.08338      .   S
    C1522  H1545     1.08338      .   S
    C387   H410      1.08338      .   S
    C667   C668      1.40882      .   S
    C509   C510      1.40850      .   S
    C1221  C1222     1.40882      .   S
    C827   C828      1.40840      .   S
    C1404  C1405     1.40840      .   S
    C1021  C1022     1.40850      .   S
    C213   C1880     1.39567      .   S
    C213   C2021     1.40880      .   S
    C86    C1560     1.39567      .   S
    C86    C2018     1.40890      .   S
    C1720  C345      1.39567      .   S
    C1720  C2025     1.40880      .   S
    C345   C2024     1.40848      .   S
    C1560  C2019     1.40890      .   S
    C1880  C2020     1.40848      .   S
    H1826  C1803     1.08257      .   S
    H1666  C1643     1.08257      .   S
    H451   C428      1.08257      .   S
    H26    C3        1.08257      .   S
    H1506  C1483     1.08257      .   S
    H323   C300      1.08257      .   S
    C1643  C1644     1.40707      .   S
    C1483  C1484     1.40726      .   S
    C1803  C1804     1.40697      .   S
    C3     C4        1.40726      .   S
    C428   C429      1.40697      .   S
    C300   C301      1.40707      .   S
    C178   H200      1.08261      .   S
    C178   C1485     1.40510      .   S
    C390   H412      1.08261      .   S
    C390   C1805     1.40510      .   S
    C1525  H1547     1.08261      .   S
    C1525  C302      1.40510      .   S
    C1685  H1707     1.08261      .   S
    C1685  C5        1.40510      .   S
    C134   H156      1.08261      .   S
    C134   C1645     1.40510      .   S
    C1845  H1867     1.08261      .   S
    C1845  C430      1.40510      .   S
    C1412  C1414     1.41009      .   S
    C835   C837      1.41009      .   S
    C1029  C1031     1.41009      .   S
    C1229  C1231     1.41009      .   S
    C675   C677      1.41009      .   S
    C260   C262      1.41009      .   S
    C1414  H1433     1.08243      .   S
    C262   H535      1.08263      .   S
    C1031  H1050     1.08263      .   S
    C1231  H1250     1.08230      .   S
    C837   H856      1.08243      .   S
    C677   H696      1.08230      .   S
    C1405  C828      1.40510      .   S
    C1405  H1427     1.08261      .   S
    C828   H850      1.08261      .   S
    C1022  C668      1.40510      .   S
    C1022  H1044     1.08261      .   S
    C1222  C510      1.40510      .   S
    C1222  H1244     1.08261      .   S
    C510   H529      1.08261      .   S
    C668   H690      1.08261      .   S
    C2020  C173      1.40848      .   S
    C2018  C1520     1.40836      .   S
    C2019  C126      1.40836      .   S
    C2025  C385      1.40880      .   S
    C2024  C1680     1.40848      .   S
    C2021  C1840     1.40880      .   S
    C1484  C1485     1.40821      .   S
    C301   C302      1.40840      .   S
    C4     C5        1.40821      .   S
    C1644  C1645     1.40840      .   S
    C1804  C1805     1.40882      .   S
    C429   C430      1.40882      .   S
    C5     H27       1.08261      .   S
    C1805  H1827     1.08261      .   S
    C1645  H1667     1.08261      .   S
    C430   H452      1.08261      .   S
    C1485  H1507     1.08261      .   S
    C302   H324      1.08261      .   S
    C385   C1680     1.39567      .   S
    C385   H408      1.08337      .   S
    C173   C1840     1.39567      .   S
    C173   H196      1.08308      .   S
    C1520  C126      1.39567      .   S
    C1520  H1543     1.08350      .   S
    C1680  H1703     1.08308      .   S
    C126   H152      1.08350      .   S
    C1840  H1863     1.08337      .   S
    C1970  C263      1.40869      .   S
    C1970  C1032     1.40869      .   S
    C2002  C838      1.40922      .   S
    C2002  C1232     1.40868      .   S
    C1986  C1415     1.40922      .   S
    C1986  C678      1.40868      .   S
    H1051  C1032     1.08260      .   S
    H536   C263      1.08260      .   S
    H697   C678      1.08260      .   S
    H1434  C1415     1.08260      .   S
    H1251  C1232     1.08260      .   S
    H857   C838      1.08260      .   S
    C838   C839      1.40693      .   S
    C1415  C1416     1.40693      .   S
    C263   C264      1.40693      .   S
    C678   C679      1.40693      .   S
    C1232  C1233     1.40693      .   S
    C1032  C1033     1.40693      .   S
    C264   H537      1.08308      .   S
    C264   C1971     1.41318      .   S
    C1033  H1052     1.08308      .   S
    C1033  C1971     1.41318      .   S
    C1416  H1435     1.08308      .   S
    C1416  C1987     1.41318      .   S
    C1233  H1252     1.08308      .   S
    C1233  C2003     1.41318      .   S
    C679   H698      1.08308      .   S
    C679   C1987     1.41318      .   S
    C839   H858      1.08308      .   S
    C839   C2003     1.41318      .   S
    C1961  C1642     1.40611      .   S
    C1961  C427      1.40557      .   S
    C1921  C1482     1.40558      .   S
    C1921  C2        1.40558      .   S
    C1949  C299      1.40611      .   S
    C1949  C1802     1.40557      .   S
    H1505  C1482     1.08338      .   S
    H450   C427      1.08338      .   S
    H1825  C1802     1.08338      .   S
    H1665  C1642     1.08338      .   S
    H25    C2        1.08338      .   S
    H322   C299      1.08338      .   S
    C299   C298      1.39584      .   S
    C1642  C1641     1.39584      .   S
    C1482  C1481     1.39584      .   S
    C2     C1        1.39584      .   S
    C1802  C1801     1.39584      .   S
    C427   C426      1.39584      .   S
    C1968  C506      1.40603      .   S
    C1968  C1018     1.40603      .   S
    C2000  C824      1.40603      .   S
    C2000  C1218     1.40603      .   S
    C1984  C664      1.40603      .   S
    C1984  C1401     1.40603      .   S
    C426   H449      1.08294      .   S
    C426   C1960     1.40603      .   S
    C298   H321      1.08349      .   S
    C298   C1948     1.40603      .   S
    C1801  H1824     1.08294      .   S
    C1801  C1948     1.40603      .   S
    C1     H24       1.08296      .   S
    C1     C1920     1.40603      .   S
    C1641  H1664     1.08349      .   S
    C1641  C1960     1.40603      .   S
    C1481  H1504     1.08296      .   S
    C1481  C1920     1.40603      .   S
    H894   C874      1.08218      .   S
    H654   C1268     1.08299  1_455   S
    H573   C553      1.08292  1_455   S
    H1391  C1371     1.08218      .   S
    H1008  C994      1.08292  1_545   S
    H734   C714      1.08299  1_545   S
    H687   C664      1.08294      .   S
    H1041  C1018     1.08306      .   S
    H526   C506      1.08306      .   S
    H1241  C1218     1.08294      .   S
    H1424  C1401     1.08349      .   S
    H847   C824      1.08349      .   S
    C824   C825      1.39584      .   S
    C1218  C1219     1.39584      .   S
    C664   C665      1.39584      .   S
    C506   C507      1.39584      .   S
    C1401  C1402     1.39584      .   S
    C1018  C1019     1.39584      .   S
    H36    C17       1.08317      .   S
    H1676  C1657     1.08281      .   S
    H169   C314      1.08281      .   S
    H1836  C1817     1.08330      .   S
    H461   C442      1.08330      .   S
    H1516  C1497     1.08317      .   S
    C553   C554      1.41102      .   S
    C553   C551      1.41201      .   S
    C994   C995      1.41102      .   S
    C994   C992      1.41201      .   S
    C874   C875      1.41161      .   S
    C874   C872      1.41201      .   S
    C714   C715      1.41150      .   S
    C714   C712      1.41201      .   S
    C1268  C1269     1.41150      .   S
    C1268  C1266     1.41201      .   S
    C1371  C1372     1.41161      .   S
    C1371  C1369     1.41201      .   S
    C875   C877      1.41009      .   S
    C1269  C1271     1.41009      .   S
    C554   C556      1.41009      .   S
    C715   C717      1.41009      .   S
    C1372  C1374     1.41009      .   S
    C995   C997      1.41009      .   S
    C2016  C0        1.40848      .   S
    C2016  C1480     1.40848      .   S
    C2023  C1800     1.40890      .   S
    C2023  C297      1.40836      .   S
    C2026  C425      1.40890      .   S
    C2026  C1640     1.40836      .   S
    C1497  C1498     1.41016      .   S
    C1497  C1499     1.40238      .   S
    C1657  C1658     1.41016      .   S
    C1657  C1659     1.40238      .   S
    C17    C18       1.41016      .   S
    C17    C19       1.40238      .   S
    C314   C315      1.41016      .   S
    C314   C316      1.40238      .   S
    C442   C443      1.41016      .   S
    C442   C444      1.40238      .   S
    C1817  C1818     1.41016      .   S
    C1817  C1819     1.40238      .   S
    H1823  C1800     1.08295      .   S
    H320   C297      1.08350      .   S
    H1663  C1640     1.08350      .   S
    H448   C425      1.08295      .   S
    H23    C0        1.08308      .   S
    H1503  C1480     1.08308      .   S
    C1498  C1501     1.40076      .   S
    C315   C318      1.40111      .   S
    C443   C446      1.40062      .   S
    C18    C21       1.40076      .   S
    C1658  C1661     1.40111      .   S
    C1818  C1821     1.40062      .   S
    H572   C551      1.08234      .   S
    H1007  C992      1.08234      .   S
    H653   C1266     1.08234      .   S
    H733   C712      1.08234      .   S
    H893   C872      1.08234      .   S
    H1390  C1369     1.08234      .   S
    C825   H848      1.08338      .   S
    C825   C2001     1.40611      .   S
    C1219  H1242     1.08338      .   S
    C1219  C2001     1.40557      .   S
    C665   H688      1.08338      .   S
    C665   C1985     1.40557      .   S
    C1402  H1425     1.08338      .   S
    C1402  C1985     1.40611      .   S
    C507   H527      1.08338      .   S
    C507   C1969     1.40567      .   S
    C1019  H1042     1.08338      .   S
    C1019  C1969     1.40567      .   S
    C992   C993      1.41116      .   S
    C712   C713      1.41110      .   S
    C1369  C1370     1.41150      .   S
    C1266  C1267     1.41110      .   S
    C872   C873      1.41150      .   S
    C551   C552      1.41116      .   S
    H462   C444      1.08314      .   S
    H170   C316      1.08334      .   S
    H1517  C1499     1.08273      .   S
    H37    C19       1.08273      .   S
    H1677  C1659     1.08334      .   S
    H1837  C1819     1.08314      .   S
    C425   C1600     1.39567      .   S
    C0     C1440     1.39567      .   S
    C1640  C465      1.39567      .   S
    C1480  C40       1.39567      .   S
    C1800  C253      1.39567      .   S
    C297   C1760     1.39567      .   S
    C1499  C1500     1.40426      .   S
    C1819  C1820     1.40426      .   S
    C1659  C1660     1.40426      .   S
    C444   C445      1.40426      .   S
    C19    C20       1.40426      .   S
    C316   C317      1.40426      .   S
    C717   H736      1.08243      .   S
    C717   C716      1.40647      .   S
    C1271  H656      1.08243      .   S
    C1271  C1270     1.40647      .   S
    C877   H896      1.08230      .   S
    C877   C876      1.40647      .   S
    C997   H1010     1.08289      .   S
    C997   C996      1.40647      .   S
    C556   H575      1.08289      .   S
    C556   C555      1.40647      .   S
    C1374  H1393     1.08230      .   S
    C1374  C1373     1.40647      .   S
    C1501  H1518     1.08353      .   S
    C1501  C1502     1.39027      .   S
    C318   H171      1.08292      .   S
    C318   C319      1.39027      .   S
    C446   H463      1.08312      .   S
    C446   C447      1.39027      .   S
    C1661  H1678     1.08292      .   S
    C1661  C1662     1.39027      .   S
    C1821  H1838     1.08312      .   S
    C1821  C1822     1.39027      .   S
    C21    H38       1.08353      .   S
    C21    C22       1.39027      .   S
    C1370  C1373     1.41033      .   S
    C552   C555      1.41033      .   S
    C873   C876      1.41033      .   S
    C1267  C1270     1.41033      .   S
    C713   C716      1.41033      .   S
    C993   C996      1.41033      .   S
    C1500  C1502     1.40817      .   S
    C20    C22       1.40817      .   S
    C445   C447      1.40860      .   S
    C1660  C1662     1.40878      .   S
    C1820  C1822     1.40860      .   S
    C317   C319      1.40878      .   S
    C996   H1009     1.08261      .   S
    C555   H574      1.08261      .   S
    C716   H735      1.08264      .   S
    C1270  H655      1.08264      .   S
    C1373  H1392     1.08224      .   S
    C876   H895      1.08224      .   S
    C447   H464      1.08338      .   S
    C1502  H1519     1.08327      .   S
    C1662  H1679     1.08289      .   S
    C22    H39       1.08327      .   S
    C1822  H1839     1.08338      .   S
    C319   H172      1.08289      .   S
    C1760  H1783     1.08350      .   S
    C1760  C2022     1.40836      .   S
    C253   H280      1.08295      .   S
    C253   C2022     1.40890      .   S
    C1440  H1463     1.08337      .   S
    C1440  C2017     1.40880      .   S
    C40    H65       1.08337      .   S
    C40    C2017     1.40880      .   S
    C1600  H1623     1.08295      .   S
    C1600  C2027     1.40890      .   S
    C465   H488      1.08350      .   S
    C465   C2027     1.40836      .   S
    H1829  C1808     1.08252      .   S
    H1669  C1648     1.08252      .   S
    H454   C433      1.08252      .   S
    H326   C305      1.08252      .   S
    H29    C8        1.08252      .   S
    H1509  C1488     1.08252      .   S
    H651   C1263     1.08272      .   S
    H570   C548      1.08286      .   S
    H731   C709      1.08272      .   S
    H1388  C1366     1.08302      .   S
    H891   C869      1.08302      .   S
    H1005  C989      1.08286      .   S
    C1991  C1376     1.41318      .   S
    C1991  C719      1.41318      .   S
    C2007  C879      1.41318      .   S
    C2007  C1273     1.41318      .   S
    C1975  C558      1.41318      .   S
    C1975  C999      1.41318      .   S
    H738   C719      1.08308      .   S
    H658   C1273     1.08308      .   S
    H577   C558      1.08308      .   S
    H1012  C999      1.08308      .   S
    H1395  C1376     1.08308      .   S
    H898   C879      1.08308      .   S
    C305   C1808     1.41076      .   S
    C305   C304      1.41173      .   S
    C8     C1488     1.41076      .   S
    C8     C7        1.41158      .   S
    C1808  C1807     1.41140      .   S
    C1648  C433      1.41076      .   S
    C1648  C1647     1.41173      .   S
    C1488  C1487     1.41158      .   S
    C433   C432      1.41140      .   S
    C1366  C709      1.40950      .   S
    C1366  C1367     1.41067      .   S
    C1263  C869      1.40950      .   S
    C1263  C1264     1.41100      .   S
    C869   C870      1.41067      .   S
    C709   C710      1.41100      .   S
    C989   C548      1.40950      .   S
    C989   C990      1.41084      .   S
    C548   C549      1.41084      .   S
    C879   C878      1.40693      .   S
    C1376  C1375     1.40693      .   S
    C1273  C1272     1.40693      .   S
    C719   C718      1.40693      .   S
    C558   C557      1.40693      .   S
    C999   C998      1.40693      .   S
    C1950  C1815     1.40868      .   S
    C1950  C312      1.40922      .   S
    C1922  C15       1.40896      .   S
    C1922  C1495     1.40896      .   S
    C1962  C1655     1.40922      .   S
    C1962  C440      1.40868      .   S
    H167   C312      1.08260      .   S
    H1834  C1815     1.08260      .   S
    H1514  C1495     1.08260      .   S
    H1674  C1655     1.08260      .   S
    H459   C440      1.08260      .   S
    H34    C15       1.08260      .   S
    C15    C16       1.40693      .   S
    C1655  C1656     1.40693      .   S
    C1495  C1496     1.40693      .   S
    C440   C441      1.40693      .   S
    C1815  C1816     1.40693      .   S
    C312   C313      1.40693      .   S
    C304   C303      1.41100      .   S
    C432   C431      1.41067      .   S
    C1807  C1806     1.41067      .   S
    C1647  C1646     1.41100      .   S
    C7     C6        1.41084      .   S
    C1487  C1486     1.41084      .   S
    C1264  C1265     1.41173      .   S
    C1367  C1368     1.41140      .   S
    C870   C871      1.41140      .   S
    C990   C991      1.41158      .   S
    C549   C550      1.41158      .   S
    C710   C711      1.41173      .   S
    C718   H737      1.08260      .   S
    C718   C1990     1.40922      .   S
    C878   H897      1.08260      .   S
    C878   C2006     1.40868      .   S
    C557   H576      1.08260      .   S
    C557   C1974     1.40896      .   S
    C998   H1011     1.08260      .   S
    C998   C1974     1.40896      .   S
    C1375  H1394     1.08260      .   S
    C1375  C1990     1.40868      .   S
    C1272  H657      1.08260      .   S
    C1272  C2006     1.40922      .   S
    C313   H168      1.08308      .   S
    C313   C1951     1.41318      .   S
    C1656  H1675     1.08308      .   S
    C1656  C1963     1.41318      .   S
    C1816  H1835     1.08308      .   S
    C1816  C1951     1.41318      .   S
    C16    H35       1.08308      .   S
    C16    C1923     1.41318      .   S
    C1496  H1515     1.08308      .   S
    C1496  C1923     1.41318      .   S
    C441   H460      1.08308      .   S
    C441   C1963     1.41318      .   S
    C1646  C431      1.40950      .   S
    C1646  H1668     1.08272      .   S
    C303   C1806     1.40950      .   S
    C303   H325      1.08272      .   S
    C1486  C6        1.40950      .   S
    C1486  H1508     1.08286      .   S
    C6     H28       1.08286      .   S
    C1806  H1828     1.08302      .   S
    C431   H453      1.08302      .   S
    C550   C991      1.41076      .   S
    C550   H571      1.08252      .   S
    C991   H1006     1.08252      .   S
    C711   C1368     1.41076      .   S
    C711   H732      1.08252      .   S
    C871   C1265     1.41076      .   S
    C871   H892      1.08252      .   S
    C1368  H1389     1.08252      .   S
    C1265  H652      1.08252      .   S
    H457   C438      1.08224      .   S
    H1512  C1493     1.08261      .   S
    H32    C13       1.08261      .   S
    H1672  C1653     1.08264      .   S
    H1832  C1813     1.08224      .   S
    H165   C310      1.08264      .   S
    H902   C885      1.08338      .   S
    H1016  C518      1.08327      .   S
    H1399  C1382     1.08338      .   S
    H581   C564      1.08327      .   S
    H742   C725      1.08289      .   S
    H662   C1279     1.08289      .   S
    C2036  C823      1.40836      .   S
    C2036  C1217     1.40890      .   S
    C2032  C1400     1.40836      .   S
    C2032  C663      1.40890      .   S
    C2028  C505      1.40880      .   S
    C2028  C1017     1.40880      .   S
    H1423  C1400     1.08350      .   S
    H1040  C1017     1.08337      .   S
    H686   C663      1.08295      .   S
    H1240  C1217     1.08295      .   S
    H846   C823      1.08350      .   S
    H525   C505      1.08337      .   S
    C1400  C703      1.39567      .   S
    C505   C983      1.39567      .   S
    C823   C1257     1.39567      .   S
    C1217  C863      1.39567      .   S
    C663   C1360     1.39567      .   S
    C1017  C542      1.39567      .   S
    C885   C883      1.40860      .   S
    C885   C884      1.39027      .   S
    C1279  C1277     1.40878      .   S
    C1279  C1278     1.39027      .   S
    C564   C562      1.40817      .   S
    C564   C563      1.39027      .   S
    C518   C516      1.40817      .   S
    C518   C517      1.39027      .   S
    C725   C723      1.40878      .   S
    C725   C724      1.39027      .   S
    C1382  C1380     1.40860      .   S
    C1382  C1381     1.39027      .   S
    C13    C10       1.41033      .   S
    C13    C14       1.40647      .   S
    C438   C435      1.41033      .   S
    C438   C439      1.40647      .   S
    C1493  C1490     1.41033      .   S
    C1493  C1494     1.40647      .   S
    C310   C307      1.41033      .   S
    C310   C311      1.40647      .   S
    C1813  C1810     1.41033      .   S
    C1813  C1814     1.40647      .   S
    C1653  C1650     1.41033      .   S
    C1653  C1654     1.40647      .   S
    C883   C882      1.40426      .   S
    C562   C561      1.40426      .   S
    C1380  C1379     1.40426      .   S
    C516   C515      1.40426      .   S
    C723   C722      1.40426      .   S
    C1277  C1276     1.40426      .   S
    C1810  C1809     1.41150      .   S
    C10    C9        1.41116      .   S
    C435   C434      1.41150      .   S
    C1490  C1489     1.41116      .   S
    C307   C306      1.41110      .   S
    C1650  C1649     1.41110      .   S
    H580   C563      1.08353      .   S
    H901   C884      1.08312      .   S
    H661   C1278     1.08292      .   S
    H1015  C517      1.08353      .   S
    H741   C724      1.08292      .   S
    H1398  C1381     1.08312      .   S
    H1513  C1494     1.08289      .   S
    H1833  C1814     1.08230      .   S
    H166   C311      1.08243      .   S
    H33    C14       1.08289      .   S
    H1673  C1654     1.08243      .   S
    H458   C439      1.08230      .   S
    C724   C721      1.40111      .   S
    C1381  C1378     1.40062      .   S
    C517   C514      1.40076      .   S
    C1278  C1275     1.40111      .   S
    C563   C560      1.40076      .   S
    C884   C881      1.40062      .   S
    C1965  C467      1.40611      .   S
    C1965  C1602     1.40557      .   S
    C1925  C1442     1.40567      .   S
    C1925  C42       1.40567      .   S
    C1945  C255      1.40557      .   S
    C1945  C1762     1.40611      .   S
    H490   C467      1.08338      .   S
    H1465  C1442     1.08338      .   S
    H282   C255      1.08338      .   S
    H1785  C1762     1.08338      .   S
    H1625  C1602     1.08338      .   S
    H67    C42       1.08338      .   S
    C439   C437      1.41009      .   S
    C1814  C1812     1.41009      .   S
    C1494  C1492     1.41009      .   S
    C1654  C1652     1.41009      .   S
    C311   C309      1.41009      .   S
    C14    C12       1.41009      .   S
    C882   H900      1.08314      .   S
    C882   C880      1.40238      .   S
    C722   H740      1.08334      .   S
    C722   C720      1.40238      .   S
    C515   H1014     1.08273      .   S
    C515   C1000     1.40238      .   S
    C1276  H660      1.08334      .   S
    C1276  C1274     1.40238      .   S
    C561   H579      1.08273      .   S
    C561   C559      1.40238      .   S
    C1379  H1397     1.08314      .   S
    C1379  C1377     1.40238      .   S
    C863   H886      1.08295      .   S
    C863   C2037     1.40890      .   S
    C703   H726      1.08350      .   S
    C703   C2033     1.40836      .   S
    C1360  H1383     1.08295      .   S
    C1360  C2033     1.40890      .   S
    C542   H565      1.08308      .   S
    C542   C2029     1.40848      .   S
    C1257  H646      1.08350      .   S
    C1257  C2037     1.40836      .   S
    C983   H519      1.08308      .   S
    C983   C2029     1.40848      .   S
    C434   H455      1.08234      .   S
    C434   C436      1.41201      .   S
    C1809  H1830     1.08234      .   S
    C1809  C1811     1.41201      .   S
    C1649  H1670     1.08234      .   S
    C1649  C1651     1.41201      .   S
    C9     H30       1.08234      .   S
    C9     C11       1.41201      .   S
    C1489  H1510     1.08234      .   S
    C1489  C1491     1.41201      .   S
    C306   H327      1.08234      .   S
    C306   C308      1.41201      .   S
    C255   C254      1.39584      .   S
    C467   C466      1.39584      .   S
    C1442  C1441     1.39584      .   S
    C1762  C1761     1.39584      .   S
    C1602  C1601     1.39584      .   S
    C42    C41       1.39584      .   S
    C560   C559      1.41016      .   S
    C881   C880      1.41016      .   S
    C721   C720      1.41016      .   S
    C1275  C1274     1.41016      .   S
    C1378  C1377     1.41016      .   S
    C514   C1000     1.41016      .   S
    C1000  H1013     1.08317  1_545   S
    C1377  H1396     1.08330      .   S
    C1274  H659      1.08281  1_455   S
    C880   H899      1.08330      .   S
    C559   H578      1.08317  1_455   S
    C720   H739      1.08281  1_545   S
    C1652  C1651     1.41150      .   S
    C1812  C1811     1.41161      .   S
    C1492  C1491     1.41102      .   S
    C12    C11       1.41102      .   S
    C309   C308      1.41150      .   S
    C437   C436      1.41161      .   S
    C1811  H1831     1.08218      .   S
    C11    H31       1.08292      .   S
    C436   H456      1.08218      .   S
    C1491  H1511     1.08292      .   S
    C1651  H1671     1.08299      .   S
    C308   H328      1.08299      .   S
    C41    H66       1.08306      .   S
    C41    C1924     1.40603      .   S
    C1601  H1624     1.08294      .   S
    C1601  C1964     1.40603      .   S
    C254   H281      1.08294      .   S
    C254   C1944     1.40603      .   S
    C466   H489      1.08349      .   S
    C466   C1964     1.40603      .   S
    C1441  H1464     1.08306      .   S
    C1441  C1924     1.40603      .   S
    C1761  H1784     1.08349      .   S
    C1761  C1944     1.40603      .   S
    C2004  C1258     1.40603      .   S
    C2004  C864      1.40603      .   S
    C1988  C1361     1.40603      .   S
    C1988  C704      1.40603      .   S
    C1972  C984      1.40603      .   S
    C1972  C543      1.40603      .   S
    H727   C704      1.08349      .   S
    H887   C864      1.08294      .   S
    H647   C1258     1.08349      .   S
    H1001  C984      1.08296      .   S
    H1384  C1361     1.08294      .   S
    H566   C543      1.08296      .   S
    C1258  C1259     1.39584      .   S
    C984   C985      1.39584      .   S
    C864   C865      1.39584      .   S
    C1361  C1362     1.39584      .   S
    C704   C705      1.39584      .   S
    C543   C544      1.39584      .   S
    C865   H888      1.08338      .   S
    C865   C2005     1.40557      .   S
    C1362  H1385     1.08338      .   S
    C1362  C1989     1.40557      .   S
    C705   H728      1.08338      .   S
    C705   C1989     1.40611      .   S
    C1259  H648      1.08338      .   S
    C1259  C2005     1.40611      .   S
    C985   H1002     1.08338      .   S
    C985   C1973     1.40558      .   S
    C544   H567      1.08338      .   S
    C544   C1973     1.40558      .   S
    C1947  C1776     1.41318      .   S
    C1947  C273      1.41318      .   S
    C1927  C1456     1.41318      .   S
    C1927  C56       1.41318      .   S
    C1967  C1616     1.41318      .   S
    C1967  C481      1.41318      .   S
    H1635  C1616     1.08308      .   S
    H292   C273      1.08308      .   S
    H500   C481      1.08308      .   S
    H1475  C1456     1.08308      .   S
    H77    C56       1.08308      .   S
    H1795  C1776     1.08308      .   S
    C1616  C1615     1.40693      .   S
    C1456  C1455     1.40693      .   S
    C481   C480      1.40693      .   S
    C1776  C1775     1.40693      .   S
    C273   C272      1.40693      .   S
    C56    C55       1.40693      .   S
    C1775  H1794     1.08260      .   S
    C1775  C1946     1.40922      .   S
    C480   H499      1.08260      .   S
    C480   C1966     1.40922      .   S
    C1455  H1474     1.08260      .   S
    C1455  C1926     1.40869      .   S
    C1615  H1634     1.08260      .   S
    C1615  C1966     1.40868      .   S
    C272   H291      1.08260      .   S
    C272   C1946     1.40868      .   S
    C55    H76       1.08260      .   S
    C55    C1926     1.40869      .   S
    H766   C743      1.08308      .   S
    H1120  C1097     1.08350      .   S
    H1343  C1320     1.08337      .   S
    H926   C903      1.08337      .   S
    H1160  C1137     1.08308      .   S
    H605   C582      1.08350      .   S
    H890   C868      1.08261      .   S
    H730   C708      1.08261      .   S
    H569   C547      1.08261      .   S
    H1004  C988      1.08261      .   S
    H1387  C1365     1.08261      .   S
    H650   C1262     1.08261      .   S
    C1137  C903      1.39567      .   S
    C1137  C2039     1.40848      .   S
    C903   C2038     1.40880      .   S
    C1320  C743      1.39567      .   S
    C1320  C2035     1.40880      .   S
    C1097  C582      1.39567      .   S
    C1097  C2031     1.40836      .   S
    C743   C2034     1.40848      .   S
    C582   C2030     1.40836      .   S
    H1467  C1445     1.08261      .   S
    H69    C45       1.08261      .   S
    H1787  C1765     1.08261      .   S
    H1627  C1605     1.08261      .   S
    H492   C470      1.08261      .   S
    H284   C129      1.08261      .   S
    C1262  C1261     1.40840      .   S
    C1262  C587      1.40510      .   S
    C547   C546      1.40821      .   S
    C547   C1142     1.40510      .   S
    C988   C987      1.40821      .   S
    C988   C748      1.40510      .   S
    C868   C867      1.40882      .   S
    C868   C1325     1.40510      .   S
    C1365  C1364     1.40882      .   S
    C1365  C908      1.40510      .   S
    C708   C707      1.40840      .   S
    C708   C1102     1.40510      .   S
    C707   C706      1.40707      .   S
    C1261  C1260     1.40707      .   S
    C867   C866      1.40697      .   S
    C1364  C1363     1.40697      .   S
    C987   C986      1.40726      .   S
    C546   C545      1.40726      .   S
    H1633  C1614     1.08230      .   S
    H1793  C1774     1.08243      .   S
    H498   C479      1.08243      .   S
    H290   C271      1.08230      .   S
    H1473  C1454     1.08263      .   S
    H75    C54       1.08263      .   S
    C2035  C783      1.40880      .   S
    C2030  C1057     1.40890      .   S
    C2031  C622      1.40890      .   S
    C2039  C943      1.40848      .   S
    C2038  C1177     1.40880      .   S
    C2034  C1280     1.40848      .   S
    C1765  C470      1.40510      .   S
    C1765  C1764     1.40840      .   S
    C45    C1605     1.40510      .   S
    C45    C44       1.40850      .   S
    C470   C469      1.40840      .   S
    C129   C1445     1.40510      .   S
    C129   C128      1.40882      .   S
    C1605  C1604     1.40882      .   S
    C1445  C1444     1.40850      .   S
    H928   C905      1.08338      .   S
    H1122  C1099     1.08338      .   S
    H768   C745      1.08338      .   S
    H1162  C1139     1.08338      .   S
    H607   C584      1.08338      .   S
    H1345  C1322     1.08338      .   S
    C1614  C1612     1.41009      .   S
    C1614  C1613     1.40647      .   S
    C54    C52       1.41009      .   S
    C54    C53       1.40647      .   S
    C479   C477      1.41009      .   S
    C479   C478      1.40647      .   S
    C271   C269      1.41009      .   S
    C271   C270      1.40647      .   S
    C1774  C1772     1.41009      .   S
    C1774  C1773     1.40647      .   S
    C1454  C1452     1.41009      .   S
    C1454  C1453     1.40647      .   S
    C52    C51       1.41131      .   S
    C1612  C1611     1.41161      .   S
    C1452  C1451     1.41131      .   S
    C477   C476      1.41150      .   S
    C269   C268      1.41161      .   S
    C1772  C1771     1.41150      .   S
    H770   C748      1.08261      .   S
    H930   C908      1.08261      .   S
    H1347  C1325     1.08261      .   S
    H1164  C1142     1.08261      .   S
    H609   C587      1.08261      .   S
    H1124  C1102     1.08261      .   S
    C1102  C1101     1.40840      .   S
    C908   C907      1.40850      .   S
    C587   C586      1.40840      .   S
    C748   C747      1.40821      .   S
    C1142  C1141     1.40821      .   S
    C1325  C1324     1.40850      .   S
    C545   H568      1.08257      .   S
    C545   C1140     1.39819      .   S
    C1363  H1386     1.08257      .   S
    C1363  C906      1.39819      .   S
    C986   H1003     1.08257      .   S
    C986   C746      1.39819      .   S
    C1260  H649      1.08257      .   S
    C1260  C585      1.39819      .   S
    C706   H729      1.08257      .   S
    C706   C1100     1.39819      .   S
    C866   H889      1.08257      .   S
    C866   C1323     1.39819      .   S
    C783   C1280     1.39567      .   S
    C783   H806      1.08337      .   S
    C1280  H1303     1.08308      .   S
    C1177  C943      1.39567      .   S
    C1177  H1200     1.08337      .   S
    C943   H966      1.08308      .   S
    C622   C1057     1.39567      .   S
    C622   H645      1.08295      .   S
    C1057  H1080     1.08295      .   S
    C44    C43       1.40665      .   S
    C128   C256      1.40697      .   S
    C469   C468      1.40707      .   S
    C1764  C1763     1.40707      .   S
    C1604  C1603     1.40697      .   S
    C1444  C1443     1.40665      .   S
    C1099  C1981     1.40611      .   S
    C1099  C1098     1.39584      .   S
    C1322  C1997     1.40567      .   S
    C1322  C1321     1.39584      .   S
    C745   C1993     1.40558      .   S
    C745   C744      1.39584      .   S
    C1139  C2013     1.40558      .   S
    C1139  C1138     1.39584      .   S
    C905   C2009     1.40567      .   S
    C905   C904      1.39584      .   S
    C584   C1977     1.40611      .   S
    C584   C583      1.39584      .   S
    H497   C478      1.08264      .   S
    H1792  C1773     1.08264      .   S
    H74    C53       1.08286      .   S
    H1632  C1613     1.08224      .   S
    H1472  C1453     1.08286      .   S
    H289   C270      1.08224      .   S
    C270   C267      1.41033      .   S
    C1613  C1610     1.41033      .   S
    C53    C50       1.41033      .   S
    C478   C475      1.41033      .   S
    C1453  C1450     1.41033      .   S
    C1773  C1770     1.41033      .   S
    H1121  C1098     1.08349      .   S
    H767   C744      1.08296      .   S
    H1344  C1321     1.08306      .   S
    H606   C583      1.08349      .   S
    H927   C904      1.08306      .   S
    H1161  C1138     1.08296      .   S
    C1771  H1791     1.08299      .   S
    C1771  C1769     1.41201      .   S
    C476   H496      1.08299      .   S
    C476   C474      1.41201      .   S
    C1451  H1471     1.08341      .   S
    C1451  C1449     1.41201      .   S
    C268   H288      1.08218      .   S
    C268   C266      1.41201      .   S
    C51    H73       1.08341      .   S
    C51    C49       1.41201      .   S
    C1611  H1631     1.08218      .   S
    C1611  C1609     1.41201      .   S
    C1324  C1323     1.40665      .   S
    C1101  C1100     1.40707      .   S
    C747   C746      1.40726      .   S
    C586   C585      1.40707      .   S
    C1141  C1140     1.40726      .   S
    C907   C906      1.40665      .   S
    H503   C486      1.08292      .   S
    H1798  C1781     1.08292      .   S
    H1638  C1621     1.08312      .   S
    H1478  C1461     1.08312      .   S
    H84    C61       1.08312      .   S
    H295   C278      1.08312      .   S
    C906   H929      1.08257      .   S
    C1140  H1163     1.08257      .   S
    C1323  H1346     1.08257      .   S
    C1100  H1123     1.08257      .   S
    C746   H769      1.08257      .   S
    C585   H608      1.08257      .   S
    C1993  C1282     1.40558      .   S
    C1997  C785      1.40567      .   S
    C2013  C945      1.40558      .   S
    C2009  C1179     1.40567      .   S
    C1977  C1059     1.40557      .   S
    C1981  C624      1.40557      .   S
    C904   C2008     1.40603      .   S
    C1098  C1980     1.40603      .   S
    C744   C1992     1.40603      .   S
    C583   C1976     1.40603      .   S
    C1321  C1996     1.40603      .   S
    C1138  C2012     1.40603      .   S
    C256   C1443     1.39819      .   S
    C256   H283      1.08257      .   S
    C468   C1763     1.39819      .   S
    C468   H491      1.08257      .   S
    C1443  H1466     1.08257      .   S
    C43    C1603     1.39819      .   S
    C43    H68       1.08257      .   S
    C1763  H1786     1.08257      .   S
    C1603  H1626     1.08257      .   S
    C1781  C1778     1.40111      .   S
    C1781  C1782     1.39027      .   S
    C1461  C1458     1.40113      .   S
    C1461  C1462     1.39027      .   S
    C61    C58       1.40113      .   S
    C61    C62       1.39027      .   S
    C1621  C1618     1.40062      .   S
    C1621  C1622     1.39027      .   S
    C278   C275      1.40062      .   S
    C278   C279      1.39027      .   S
    C486   C483      1.40111      .   S
    C486   C487      1.39027      .   S
    C267   C266      1.41150      .   S
    C1770  C1769     1.41110      .   S
    C475   C474      1.41110      .   S
    C1450  C1449     1.41088      .   S
    C1610  C1609     1.41150      .   S
    C50    C49       1.41088      .   S
    C1449  H1470     1.08234      .   S
    C49    H72       1.08234      .   S
    C1769  H1790     1.08234      .   S
    C474   H495      1.08234      .   S
    C266   H287      1.08234      .   S
    C1609  H1630     1.08234      .   S
    H504   C487      1.08289      .   S
    H296   C279      1.08338      .   S
    H1639  C1622     1.08338      .   S
    H85    C62       1.08287      .   S
    H1799  C1782     1.08289      .   S
    H1479  C1462     1.08287      .   S
    C483   C482      1.41016      .   S
    C275   C274      1.41016      .   S
    C1778  C1777     1.41016      .   S
    C58    C57       1.41016      .   S
    C1458  C1457     1.41016      .   S
    C1618  C1617     1.41016      .   S
    C624   H330      1.08338      .   S
    C624   C623      1.39584      .   S
    C785   H808      1.08338      .   S
    C785   C784      1.39584      .   S
    C945   H968      1.08338      .   S
    C945   C944      1.39584      .   S
    C1179  H1202     1.08338      .   S
    C1179  C1178     1.39584      .   S
    C1282  H1305     1.08338      .   S
    C1282  C1281     1.39584      .   S
    C1059  H1082     1.08338      .   S
    C1059  C1058     1.39584      .   S
    C1976  C1058     1.40603      .   S
    C1980  C623      1.40603      .   S
    C1992  C1281     1.40603      .   S
    C1996  C784      1.40603      .   S
    C2008  C1178     1.40603      .   S
    C2012  C944      1.40603      .   S
    C62    C60       1.40857      .   S
    C279   C277      1.40860      .   S
    C487   C485      1.40878      .   S
    C1622  C1620     1.40860      .   S
    C1782  C1780     1.40878      .   S
    C1462  C1460     1.40857      .   S
    H821   C804      1.08312      .   S
    H1095  C1078     1.08312      .   S
    H1215  C1198     1.08312      .   S
    H343   C643      1.08312      .   S
    H981   C964      1.08353      .   S
    H1318  C1301     1.08353      .   S
    H982   C965      1.08327      .   S
    H344   C644      1.08338      .   S
    H1216  C1199     1.08287      .   S
    H822   C805      1.08287      .   S
    H1319  C1302     1.08327      .   S
    H1096  C1079     1.08338      .   S
    C944   H967      1.08296      .   S
    C1058  H1081     1.08294      .   S
    C1178  H1201     1.08306      .   S
    C784   H807      1.08306      .   S
    C623   H329      1.08294      .   S
    C1281  H1304     1.08296      .   S
    C1078  C1079     1.39027      .   S
    C1078  C1075     1.40062      .   S
    C964   C965      1.39027      .   S
    C964   C961      1.40076      .   S
    C1198  C1199     1.39027      .   S
    C1198  C1195     1.40113      .   S
    C1301  C1302     1.39027      .   S
    C1301  C1298     1.40076      .   S
    C643   C644      1.39027      .   S
    C643   C640      1.40062      .   S
    C804   C805      1.39027      .   S
    C804   C801      1.40113      .   S
    C1302  C1300     1.40817      .   S
    C965   C963      1.40817      .   S
    C1079  C1077     1.40860      .   S
    C644   C642      1.40860      .   S
    C1199  C1197     1.40857      .   S
    C805   C803      1.40857      .   S
    C482   H501      1.08281      .   S
    C482   C484      1.40238      .   S
    C57    H78       1.08279      .   S
    C57    C59       1.40238      .   S
    C1777  H1796     1.08281      .   S
    C1777  C1779     1.40238      .   S
    C274   H293      1.08330      .   S
    C274   C276      1.40238      .   S
    C1617  H1636     1.08330      .   S
    C1617  C1619     1.40238      .   S
    C1457  H1476     1.08279      .   S
    C1457  C1459     1.40238      .   S
    C1780  C1779     1.40426      .   S
    C485   C484      1.40426      .   S
    C277   C276      1.40426      .   S
    C1460  C1459     1.40426      .   S
    C1620  C1619     1.40426      .   S
    C60    C59       1.40426      .   S
    H1171  C1152     1.08260      .   S
    H777   C758      1.08260      .   S
    H1354  C1335     1.08260      .   S
    H937   C918      1.08260      .   S
    H616   C597      1.08260      .   S
    H1131  C1112     1.08260      .   S
    C801   C800      1.41016      .   S
    C1075  C1074     1.41016      .   S
    C1298  C1297     1.41016      .   S
    C961   C960      1.41016      .   S
    C1195  C1194     1.41016      .   S
    C640   C639      1.41016      .   S
    C59    H79       1.08313      .   S
    C484   H502      1.08334      .   S
    C276   H294      1.08314      .   S
    C1459  H1477     1.08313      .   S
    C1619  H1637     1.08314      .   S
    C1779  H1797     1.08334      .   S
    C803   C802      1.40426      .   S
    C642   C641      1.40426      .   S
    C1077  C1076     1.40426      .   S
    C1300  C1299     1.40426      .   S
    C1197  C1196     1.40426      .   S
    C963   C962      1.40426      .   S
    H614   C595      1.08264      .   S
    H1352  C1333     1.08286      .   S
    H1169  C1150     1.08261      .   S
    H775   C756      1.08261      .   S
    H935   C916      1.08286      .   S
    H1129  C1110     1.08264      .   S
    H938   C919      1.08308      .   S
    H617   C598      1.08308      .   S
    H1132  C1113     1.08308      .   S
    H1355  C1336     1.08308      .   S
    H778   C759      1.08308      .   S
    H1172  C1153     1.08308      .   S
    C918   C919      1.40693      .   S
    C918   C2010     1.40869      .   S
    C1335  C1336     1.40693      .   S
    C1335  C1998     1.40869      .   S
    C758   C759      1.40693      .   S
    C758   C1994     1.40896      .   S
    C1152  C1153     1.40693      .   S
    C1152  C2014     1.40896      .   S
    C597   C598      1.40693      .   S
    C597   C1978     1.40922      .   S
    C1112  C1113     1.40693      .   S
    C1112  C1982     1.40922      .   S
    C1297  C1299     1.40238      .   S
    C1297  H1316     1.08317  1_455   S
    C960   C962      1.40238      .   S
    C960   H979      1.08317  1_545   S
    C1074  C1076     1.40238      .   S
    C1074  H1093     1.08330      .   S
    C800   C802      1.40238      .   S
    C800   H819      1.08279  1_455   S
    C639   C641      1.40238      .   S
    C639   H341      1.08330      .   S
    C1194  C1196     1.40238      .   S
    C1194  H1213     1.08279  1_545   S
    H1083  C1060     1.08257      .   S
    H809   C786      1.08257      .   S
    H1203  C1180     1.08257      .   S
    H331   C625      1.08257      .   S
    H969   C946      1.08257      .   S
    H1306  C1283     1.08257      .   S
    C1196  H1214     1.08313      .   S
    C1299  H1317     1.08273      .   S
    C962   H980      1.08273      .   S
    C1076  H1094     1.08314      .   S
    C641   H342      1.08314      .   S
    C802   H820      1.08313      .   S
    H1170  C1151     1.08289      .   S
    H615   C596      1.08243      .   S
    H1353  C1334     1.08263      .   S
    H936   C917      1.08263      .   S
    H1130  C1111     1.08243      .   S
    H776   C757      1.08289      .   S
    C1060  C786      1.39819      .   S
    C1060  C1061     1.40697      .   S
    C946   C1283     1.39819      .   S
    C946   C947      1.40726      .   S
    C625   C1180     1.39819      .   S
    C625   C626      1.40697      .   S
    C1283  C1284     1.40726      .   S
    C786   C787      1.40665      .   S
    C1180  C1181     1.40665      .   S
    C1113  C1983     1.41318      .   S
    C1153  C2015     1.41318      .   S
    C759   C1995     1.41318      .   S
    C1336  C1999     1.41318      .   S
    C919   C2011     1.41318      .   S
    C598   C1979     1.41318      .   S
    C1181  C1182     1.40850      .   S
    C1061  C1062     1.40882      .   S
    C947   C948      1.40821      .   S
    C626   C627      1.40882      .   S
    C1284  C1285     1.40821      .   S
    C787   C788      1.40850      .   S
    C1110  C1111     1.40647      .   S
    C1110  C1107     1.41033      .   S
    C916   C917      1.40647      .   S
    C916   C913      1.41033      .   S
    C595   C596      1.40647      .   S
    C595   C592      1.41033      .   S
    C756   C757      1.40647      .   S
    C756   C753      1.41033      .   S
    C1333  C1334     1.40647      .   S
    C1333  C1330     1.41033      .   S
    C1150  C1151     1.40647      .   S
    C1150  C1147     1.41033      .   S
    C1994  C1295     1.40896      .   S
    C1998  C798      1.40869      .   S
    C2010  C1192     1.40869      .   S
    C2014  C958      1.40896      .   S
    C1982  C637      1.40868      .   S
    C1978  C1072     1.40868      .   S
    C788   C1062     1.40510      .   S
    C788   H810      1.08261      .   S
    C1062  H1084     1.08261      .   S
    C948   C1285     1.40510      .   S
    C948   H970      1.08261      .   S
    C1285  H1307     1.08261      .   S
    C1182  C627      1.40510      .   S
    C1182  H1204     1.08261      .   S
    C627   H332      1.08261      .   S
    C757   C755      1.41009      .   S
    C917   C915      1.41009      .   S
    C1151  C1149     1.41009      .   S
    C1334  C1332     1.41009      .   S
    C1111  C1109     1.41009      .   S
    C596   C594      1.41009      .   S
    H70    C46       1.08332      .   S
    H1628  C1606     1.08302      .   S
    H1788  C1766     1.08272      .   S
    H1468  C1446     1.08332      .   S
    H285   C130      1.08302      .   S
    H493   C471      1.08272      .   S
    C471   C1606     1.40950      .   S
    C471   C472      1.41100      .   S
    C1446  C46       1.40950      .   S
    C1446  C1447     1.41127      .   S
    C1606  C1607     1.41067      .   S
    C130   C1766     1.40950      .   S
    C130   C131      1.41067      .   S
    C1766  C1767     1.41100      .   S
    C46    C47       1.41127      .   S
    C1107  C1106     1.41110      .   S
    C753   C752      1.41116      .   S
    C913   C912      1.41088      .   S
    C592   C591      1.41110      .   S
    C1147  C1146     1.41116      .   S
    C1330  C1329     1.41088      .   S
    C1983  C638      1.41318      .   S
    C1999  C799      1.41318      .   S
    C1979  C1073     1.41318      .   S
    C1995  C1296     1.41318      .   S
    C2011  C1193     1.41318      .   S
    C2015  C959      1.41318      .   S
    C1767  C1768     1.41173      .   S
    C1447  C1448     1.41113      .   S
    C472   C473      1.41173      .   S
    C131   C132      1.41140      .   S
    C1607  C1608     1.41140      .   S
    C47    C48       1.41113      .   S
    C1072  C1073     1.40693      .   S
    C1072  H1091     1.08260      .   S
    C1295  C1296     1.40693      .   S
    C1295  H1314     1.08260      .   S
    C958   C959      1.40693      .   S
    C958   H977      1.08260      .   S
    C798   C799      1.40693      .   S
    C798   H817      1.08260      .   S
    C637   C638      1.40693      .   S
    C637   H339      1.08260      .   S
    C1192  C1193     1.40693      .   S
    C1192  H1211     1.08260      .   S
    C915   C914      1.41131      .   S
    C594   C593      1.41150      .   S
    C755   C754      1.41102      .   S
    C1149  C1148     1.41102      .   S
    C1109  C1108     1.41150      .   S
    C1332  C1331     1.41131      .   S
    C1608  C473      1.41076      .   S
    C1608  H1629     1.08252      .   S
    C48    C1448     1.41076      .   S
    C48    H71       1.08252      .   S
    C473   H494      1.08252      .   S
    C132   C1768     1.41076      .   S
    C132   H286      1.08252      .   S
    C1768  H1789     1.08252      .   S
    C1448  H1469     1.08252      .   S
    C959   H978      1.08308      .   S
    C1073  H1092     1.08308      .   S
    C799   H818      1.08308      .   S
    C1296  H1315     1.08308      .   S
    C638   H340      1.08308      .   S
    C1193  H1212     1.08308      .   S
    C1146  C1148     1.41201      .   S
    C1146  H1167     1.08234      .   S
    C1329  C1331     1.41201      .   S
    C1329  H1350     1.08234      .   S
    C591   C593      1.41201      .   S
    C591   H612      1.08234      .   S
    C912   C914      1.41201      .   S
    C912   H933      1.08234      .   S
    C1106  C1108     1.41201      .   S
    C1106  H1127     1.08234      .   S
    C752   C754      1.41201      .   S
    C752   H773      1.08234      .   S
