# CIF file generated by openbabel 2.4.90, see http://openbabel.sf.net
data_I
_chemical_name_common ''
_cell_length_a 62.8399
_cell_length_b 62.8399
_cell_length_c 62.8399
_cell_angle_alpha 60
_cell_angle_beta 60
_cell_angle_gamma 60
_space_group_name_H-M_alt 'P 1'
_space_group_name_Hall 'P 1'
loop_
    _symmetry_equiv_pos_as_xyz
    x,y,z
loop_
    _atom_site_label
    _atom_site_type_symbol
    _atom_site_fract_x
    _atom_site_fract_y
    _atom_site_fract_z
    _atom_site_occupancy
    Cr0     Cr   0.30656   0.35963   0.53034   1.000
    C1      C    0.31227   0.38220   0.47489   1.000
    C2      C    0.15936   0.25305   0.62501   1.000
    C3      C    0.14404   0.29961   0.66831   1.000
    C4      C    0.20310   0.27199   0.73261   1.000
    C5      C    0.34166   0.27304   0.52830   1.000
    Cr6     Cr   0.11423   0.28384   0.65770   1.000
    C7      C    0.07796   0.33257   0.66808   1.000
    O8      O    0.42559   0.46103   0.50214   1.000
    O9      O    0.33327   0.36883   0.52525   1.000
    O10     O    0.40801   0.44352   0.48477   1.000
    O11     O    0.30637   0.38370   0.49673   1.000
    O12     O    0.36082   0.31969   0.47176   1.000
    O13     O    0.14341   0.25626   0.64681   1.000
    O14     O    0.09285   0.28098   0.64670   1.000
    O15     O    0.13396   0.28390   0.67277   1.000
    O16     O    0.14205   0.32149   0.65000   1.000
    O17     O    0.20797   0.24927   0.74940   1.000
    O18     O    0.21218   0.28867   0.72771   1.000
    O19     O    0.30379   0.33926   0.56556   1.000
    O20     O    0.25801   0.29346   0.70249   1.000
    O21     O    0.33112   0.29016   0.51111   1.000
    O22     O    0.27746   0.35332   0.53657   1.000
    O23     O    0.08410   0.30855   0.67227   1.000
    O24     O    0.15737   0.33907   0.59943   1.000
    Cr25    Cr   0.28384   0.11423   0.94423   1.000
    Cr26    Cr   0.35963   0.30656   0.80348   1.000
    C27     C    0.38220   0.31227   0.83063   1.000
    C28     C    0.25305   0.15936   0.96258   1.000
    C29     C    0.29961   0.14404   0.88804   1.000
    C30     C    0.27199   0.20310   0.79230   1.000
    C31     C    0.27304   0.34166   0.85700   1.000
    C32     C    0.33257   0.07796   0.92138   1.000
    O33     O    0.46103   0.42559   0.61124   1.000
    O34     O    0.36883   0.33327   0.77265   1.000
    O35     O    0.44352   0.40801   0.66370   1.000
    O36     O    0.38370   0.30637   0.81320   1.000
    C37     C    0.83063   0.47489   0.38220   1.000
    O38     O    0.31969   0.36082   0.84773   1.000
    O39     O    0.25626   0.14341   0.95352   1.000
    O40     O    0.28098   0.09285   0.97946   1.000
    O41     O    0.28390   0.13396   0.90937   1.000
    O42     O    0.32149   0.14205   0.88647   1.000
    O43     O    0.24927   0.20797   0.79336   1.000
    O44     O    0.28867   0.21218   0.77143   1.000
    O45     O    0.33926   0.30379   0.79140   1.000
    O46     O    0.29346   0.25801   0.74604   1.000
    O47     O    0.29016   0.33112   0.86762   1.000
    O48     O    0.35332   0.27746   0.83264   1.000
    O49     O    0.30855   0.08410   0.93508   1.000
    O50     O    0.33907   0.15737   0.90414   1.000
    Cr51    Cr   0.65770   0.94423   0.11423   1.000
    Cr52    Cr   0.53034   0.80348   0.30656   1.000
    C53     C    0.47489   0.83063   0.31227   1.000
    C54     C    0.62501   0.96258   0.15936   1.000
    C55     C    0.66831   0.88804   0.14404   1.000
    C56     C    0.73261   0.79230   0.20310   1.000
    C57     C    0.52830   0.85700   0.34166   1.000
    C58     C    0.66808   0.92138   0.07796   1.000
    O59     O    0.50214   0.61124   0.42559   1.000
    O60     O    0.52525   0.77265   0.33327   1.000
    O61     O    0.48477   0.66370   0.40801   1.000
    O62     O    0.49673   0.81320   0.30637   1.000
    O63     O    0.47176   0.84773   0.36082   1.000
    O64     O    0.64681   0.95352   0.14341   1.000
    O65     O    0.64670   0.97946   0.09285   1.000
    O66     O    0.67277   0.90937   0.13396   1.000
    O67     O    0.65000   0.88647   0.14205   1.000
    O68     O    0.74940   0.79336   0.20797   1.000
    O69     O    0.72771   0.77143   0.21218   1.000
    O70     O    0.56556   0.79140   0.30379   1.000
    O71     O    0.70249   0.74604   0.25801   1.000
    O72     O    0.51111   0.86762   0.33112   1.000
    O73     O    0.53657   0.83264   0.27746   1.000
    O74     O    0.67227   0.93508   0.08410   1.000
    O75     O    0.59943   0.90414   0.15737   1.000
    Cr76    Cr   0.94423   0.65770   0.28384   1.000
    Cr77    Cr   0.80348   0.53034   0.35963   1.000
    C78     C    0.15936   0.62501   0.96258   1.000
    C79     C    0.96258   0.62501   0.25305   1.000
    C80     C    0.88804   0.66831   0.29961   1.000
    C81     C    0.79230   0.73261   0.27199   1.000
    C82     C    0.85700   0.52830   0.27304   1.000
    C83     C    0.92138   0.66808   0.33257   1.000
    O84     O    0.61124   0.50214   0.46103   1.000
    O85     O    0.77265   0.52525   0.36883   1.000
    O86     O    0.66370   0.48477   0.44352   1.000
    O87     O    0.81320   0.49673   0.38370   1.000
    O88     O    0.84773   0.47176   0.31969   1.000
    O89     O    0.95352   0.64681   0.25626   1.000
    O90     O    0.97946   0.64670   0.28098   1.000
    O91     O    0.90937   0.67277   0.28390   1.000
    O92     O    0.88647   0.65000   0.32149   1.000
    O93     O    0.79336   0.74940   0.24927   1.000
    O94     O    0.77143   0.72771   0.28867   1.000
    O95     O    0.79140   0.56556   0.33926   1.000
    O96     O    0.74604   0.70249   0.29346   1.000
    O97     O    0.86762   0.51111   0.29016   1.000
    O98     O    0.83264   0.53657   0.35332   1.000
    O99     O    0.93508   0.67227   0.30855   1.000
    O100    O    0.90414   0.59943   0.33907   1.000
    Cr101   Cr   0.65770   0.11423   0.28384   1.000
    Cr102   Cr   0.53034   0.30656   0.35963   1.000
    C103    C    0.47489   0.31227   0.38220   1.000
    C104    C    0.62501   0.15936   0.25305   1.000
    C105    C    0.66831   0.14404   0.29961   1.000
    C106    C    0.73261   0.20310   0.27199   1.000
    C107    C    0.52830   0.34166   0.27304   1.000
    C108    C    0.66808   0.07796   0.33257   1.000
    O109    O    0.50214   0.42559   0.46103   1.000
    O110    O    0.52525   0.33327   0.36883   1.000
    O111    O    0.48477   0.40801   0.44352   1.000
    O112    O    0.49673   0.30637   0.38370   1.000
    O113    O    0.47176   0.36082   0.31969   1.000
    O114    O    0.64681   0.14341   0.25626   1.000
    O115    O    0.64670   0.09285   0.28098   1.000
    O116    O    0.67277   0.13396   0.28390   1.000
    O117    O    0.65000   0.14205   0.32149   1.000
    O118    O    0.74940   0.20797   0.24927   1.000
    O119    O    0.72771   0.21218   0.28867   1.000
    O120    O    0.56556   0.30379   0.33926   1.000
    O121    O    0.70249   0.25801   0.29346   1.000
    O122    O    0.51111   0.33112   0.29016   1.000
    O123    O    0.53657   0.27746   0.35332   1.000
    O124    O    0.67227   0.08410   0.30855   1.000
    O125    O    0.59943   0.15737   0.33907   1.000
    Cr126   Cr   0.94423   0.28384   0.11423   1.000
    Cr127   Cr   0.80348   0.35963   0.30656   1.000
    C128    C    0.83063   0.38220   0.31227   1.000
    C129    C    0.96258   0.25305   0.15936   1.000
    C130    C    0.88804   0.29961   0.14404   1.000
    C131    C    0.79230   0.27199   0.20310   1.000
    C132    C    0.85700   0.27304   0.34166   1.000
    C133    C    0.92138   0.33257   0.07796   1.000
    O134    O    0.61124   0.46103   0.42559   1.000
    O135    O    0.77265   0.36883   0.33327   1.000
    O136    O    0.66370   0.44352   0.40801   1.000
    O137    O    0.81320   0.38370   0.30637   1.000
    O138    O    0.84773   0.31969   0.36082   1.000
    O139    O    0.95352   0.25626   0.14341   1.000
    O140    O    0.97946   0.28098   0.09285   1.000
    O141    O    0.90937   0.28390   0.13396   1.000
    O142    O    0.88647   0.32149   0.14205   1.000
    O143    O    0.79336   0.24927   0.20797   1.000
    O144    O    0.77143   0.28867   0.21218   1.000
    O145    O    0.79140   0.33926   0.30379   1.000
    O146    O    0.74604   0.29346   0.25801   1.000
    O147    O    0.86762   0.29016   0.33112   1.000
    O148    O    0.83264   0.35332   0.27746   1.000
    O149    O    0.93508   0.30855   0.08410   1.000
    O150    O    0.90414   0.33907   0.15737   1.000
    Cr151   Cr   0.11423   0.65770   0.94423   1.000
    Cr152   Cr   0.30656   0.53034   0.80348   1.000
    C153    C    0.31227   0.47489   0.83063   1.000
    C154    C    0.10596   0.95039   0.36196   1.000
    C155    C    0.04690   0.97801   0.45770   1.000
    C156    C    0.90834   0.97696   0.39300   1.000
    C157    C    0.14404   0.66831   0.88804   1.000
    C158    C    0.20310   0.73261   0.79230   1.000
    C159    C    0.34166   0.52830   0.85700   1.000
    C160    C    0.07796   0.66808   0.92138   1.000
    O161    O    0.42559   0.50214   0.61124   1.000
    O162    O    0.33327   0.52525   0.77265   1.000
    O163    O    0.40801   0.48477   0.66370   1.000
    O164    O    0.30637   0.49673   0.81320   1.000
    O165    O    0.36082   0.47176   0.84773   1.000
    O166    O    0.14341   0.64681   0.95352   1.000
    O167    O    0.09285   0.64670   0.97946   1.000
    O168    O    0.13396   0.67277   0.90937   1.000
    O169    O    0.14205   0.65000   0.88647   1.000
    O170    O    0.20797   0.74940   0.79336   1.000
    O171    O    0.21218   0.72771   0.77143   1.000
    O172    O    0.30379   0.56556   0.79140   1.000
    O173    O    0.25801   0.70249   0.74604   1.000
    O174    O    0.33112   0.51111   0.86762   1.000
    O175    O    0.27746   0.53657   0.83264   1.000
    O176    O    0.08410   0.67227   0.93508   1.000
    O177    O    0.15737   0.59943   0.90414   1.000
    Cr178   Cr   0.28384   0.94423   0.65770   1.000
    Cr179   Cr   0.35963   0.80348   0.53034   1.000
    C180    C    0.38220   0.83063   0.47489   1.000
    C181    C    0.25305   0.96258   0.62501   1.000
    C182    C    0.29961   0.88804   0.66831   1.000
    C183    C    0.27199   0.79230   0.73261   1.000
    C184    C    0.27304   0.85700   0.52830   1.000
    C185    C    0.33257   0.92138   0.66808   1.000
    O186    O    0.46103   0.61124   0.50214   1.000
    O187    O    0.36883   0.77265   0.52525   1.000
    O188    O    0.44352   0.66370   0.48477   1.000
    O189    O    0.38370   0.81320   0.49673   1.000
    O190    O    0.31969   0.84773   0.47176   1.000
    O191    O    0.25626   0.95352   0.64681   1.000
    O192    O    0.28098   0.97946   0.64670   1.000
    O193    O    0.28390   0.90937   0.67277   1.000
    O194    O    0.32149   0.88647   0.65000   1.000
    O195    O    0.24927   0.79336   0.74940   1.000
    O196    O    0.28867   0.77143   0.72771   1.000
    O197    O    0.33926   0.79140   0.56556   1.000
    O198    O    0.29346   0.74604   0.70249   1.000
    O199    O    0.29016   0.86762   0.51111   1.000
    O200    O    0.35332   0.83264   0.53657   1.000
    O201    O    0.30855   0.93508   0.67227   1.000
    O202    O    0.33907   0.90414   0.59943   1.000
    Cr203   Cr   0.28384   0.65770   0.11423   1.000
    Cr204   Cr   0.35963   0.53034   0.30656   1.000
    C205    C    0.38220   0.47489   0.31227   1.000
    C206    C    0.25305   0.62501   0.15936   1.000
    C207    C    0.29961   0.66831   0.14404   1.000
    C208    C    0.27199   0.73261   0.20310   1.000
    C209    C    0.27304   0.52830   0.34166   1.000
    C210    C    0.33257   0.66808   0.07796   1.000
    O211    O    0.46103   0.50214   0.42559   1.000
    O212    O    0.36883   0.52525   0.33327   1.000
    O213    O    0.44352   0.48477   0.40801   1.000
    O214    O    0.38370   0.49673   0.30637   1.000
    O215    O    0.31969   0.47176   0.36082   1.000
    O216    O    0.25626   0.64681   0.14341   1.000
    O217    O    0.28098   0.64670   0.09285   1.000
    O218    O    0.28390   0.67277   0.13396   1.000
    O219    O    0.32149   0.65000   0.14205   1.000
    O220    O    0.24927   0.74940   0.20797   1.000
    O221    O    0.28867   0.72771   0.21218   1.000
    O222    O    0.33926   0.56556   0.30379   1.000
    O223    O    0.29346   0.70249   0.25801   1.000
    O224    O    0.29016   0.51111   0.33112   1.000
    O225    O    0.35332   0.53657   0.27746   1.000
    O226    O    0.30855   0.67227   0.08410   1.000
    O227    O    0.33907   0.59943   0.15737   1.000
    Cr228   Cr   0.11423   0.94423   0.28384   1.000
    Cr229   Cr   0.30656   0.80348   0.35963   1.000
    C230    C    0.31227   0.83063   0.38220   1.000
    C231    C    0.15936   0.96258   0.25305   1.000
    C232    C    0.14404   0.88804   0.29961   1.000
    C233    C    0.20310   0.79230   0.27199   1.000
    C234    C    0.34166   0.85700   0.27304   1.000
    C235    C    0.07796   0.92138   0.33257   1.000
    O236    O    0.42559   0.61124   0.46103   1.000
    O237    O    0.33327   0.77265   0.36883   1.000
    O238    O    0.40801   0.66370   0.44352   1.000
    O239    O    0.30637   0.81320   0.38370   1.000
    O240    O    0.36082   0.84773   0.31969   1.000
    O241    O    0.14341   0.95352   0.25626   1.000
    O242    O    0.09285   0.97946   0.28098   1.000
    O243    O    0.13396   0.90937   0.28390   1.000
    O244    O    0.14205   0.88647   0.32149   1.000
    O245    O    0.20797   0.79336   0.24927   1.000
    O246    O    0.21218   0.77143   0.28867   1.000
    O247    O    0.30379   0.79140   0.33926   1.000
    O248    O    0.25801   0.74604   0.29346   1.000
    O249    O    0.33112   0.86762   0.29016   1.000
    O250    O    0.27746   0.83264   0.35332   1.000
    O251    O    0.08410   0.93508   0.30855   1.000
    O252    O    0.15737   0.90414   0.33907   1.000
    Cr253   Cr   0.94423   0.11423   0.65770   1.000
    Cr254   Cr   0.80348   0.30656   0.53034   1.000
    C255    C    0.83063   0.31227   0.47489   1.000
    C256    C    0.96258   0.15936   0.62501   1.000
    C257    C    0.88804   0.14404   0.66831   1.000
    C258    C    0.79230   0.20310   0.73261   1.000
    C259    C    0.85700   0.34166   0.52830   1.000
    C260    C    0.92138   0.07796   0.66808   1.000
    O261    O    0.61124   0.42559   0.50214   1.000
    O262    O    0.77265   0.33327   0.52525   1.000
    O263    O    0.66370   0.40801   0.48477   1.000
    O264    O    0.81320   0.30637   0.49673   1.000
    O265    O    0.84773   0.36082   0.47176   1.000
    O266    O    0.95352   0.14341   0.64681   1.000
    O267    O    0.97946   0.09285   0.64670   1.000
    O268    O    0.90937   0.13396   0.67277   1.000
    O269    O    0.88647   0.14205   0.65000   1.000
    O270    O    0.79336   0.20797   0.74940   1.000
    O271    O    0.77143   0.21218   0.72771   1.000
    O272    O    0.79140   0.30379   0.56556   1.000
    O273    O    0.74604   0.25801   0.70249   1.000
    O274    O    0.86762   0.33112   0.51111   1.000
    O275    O    0.83264   0.27746   0.53657   1.000
    O276    O    0.93508   0.08410   0.67227   1.000
    O277    O    0.90414   0.15737   0.59943   1.000
    Cr278   Cr   0.65770   0.28384   0.94423   1.000
    Cr279   Cr   0.53034   0.35963   0.80348   1.000
    C280    C    0.47489   0.38220   0.83063   1.000
    C281    C    0.62501   0.25305   0.96258   1.000
    C282    C    0.66831   0.29961   0.88804   1.000
    C283    C    0.73261   0.27199   0.79230   1.000
    C284    C    0.52830   0.27304   0.85700   1.000
    C285    C    0.66808   0.33257   0.92138   1.000
    O286    O    0.50214   0.46103   0.61124   1.000
    O287    O    0.52525   0.36883   0.77265   1.000
    O288    O    0.48477   0.44352   0.66370   1.000
    O289    O    0.49673   0.38370   0.81320   1.000
    O290    O    0.47176   0.31969   0.84773   1.000
    O291    O    0.64681   0.25626   0.95352   1.000
    O292    O    0.64670   0.28098   0.97946   1.000
    O293    O    0.67277   0.28390   0.90937   1.000
    O294    O    0.65000   0.32149   0.88647   1.000
    O295    O    0.74940   0.24927   0.79336   1.000
    O296    O    0.72771   0.28867   0.77143   1.000
    O297    O    0.56556   0.33926   0.79140   1.000
    O298    O    0.70249   0.29346   0.74604   1.000
    O299    O    0.51111   0.29016   0.86762   1.000
    O300    O    0.53657   0.35332   0.83264   1.000
    O301    O    0.67227   0.30855   0.93508   1.000
    O302    O    0.59943   0.33907   0.90414   1.000
    Cr303   Cr   0.13577   0.96616   0.30577   1.000
    Cr304   Cr   0.94344   0.89037   0.44652   1.000
    C305    C    0.93773   0.86780   0.41937   1.000
    C306    C    0.09064   0.99695   0.28742   1.000
    C307    C    0.17204   0.91743   0.58192   1.000
    O308    O    0.82441   0.78897   0.74786   1.000
    O309    O    0.91673   0.88117   0.72475   1.000
    O310    O    0.84199   0.80648   0.76523   1.000
    O311    O    0.94363   0.86630   0.75327   1.000
    O312    O    0.88918   0.93031   0.77824   1.000
    O313    O    0.10659   0.99374   0.60319   1.000
    O314    O    0.15715   0.96902   0.60330   1.000
    O315    O    0.11604   0.96610   0.57723   1.000
    O316    O    0.10795   0.92851   0.60000   1.000
    O317    O    0.04203   0.00073   0.50060   1.000
    O318    O    0.03782   0.96133   0.52229   1.000
    O319    O    0.94621   0.91074   0.68444   1.000
    O320    O    0.99199   0.95654   0.54751   1.000
    O321    O    0.91888   0.95984   0.73889   1.000
    O322    O    0.97254   0.89668   0.71343   1.000
    O323    O    0.16590   0.94145   0.57773   1.000
    O324    O    0.09263   0.91093   0.65057   1.000
    C325    C    0.17204   0.91743   0.32862   1.000
    O326    O    0.82441   0.78897   0.63876   1.000
    O327    O    0.91673   0.88117   0.47735   1.000
    O328    O    0.84199   0.80648   0.58630   1.000
    O329    O    0.94363   0.86630   0.43680   1.000
    O330    O    0.88918   0.93031   0.40227   1.000
    O331    O    0.10659   0.99374   0.29648   1.000
    O332    O    0.15715   0.96902   0.27054   1.000
    O333    O    0.11604   0.96610   0.34063   1.000
    O334    O    0.10795   0.92851   0.36353   1.000
    O335    O    0.04203   0.00073   0.45664   1.000
    O336    O    0.03782   0.96133   0.47857   1.000
    O337    O    0.94621   0.91074   0.45860   1.000
    O338    O    0.99199   0.95654   0.50396   1.000
    O339    O    0.91888   0.95984   0.38238   1.000
    O340    O    0.97254   0.89668   0.41736   1.000
    O341    O    0.16590   0.94145   0.31492   1.000
    O342    O    0.09263   0.91093   0.34586   1.000
    Cr343   Cr   0.96616   0.13577   0.59230   1.000
    Cr344   Cr   0.89037   0.94344   0.71966   1.000
    C345    C    0.86780   0.93773   0.77511   1.000
    C346    C    0.99695   0.09064   0.62499   1.000
    C347    C    0.95039   0.10596   0.58169   1.000
    C348    C    0.97801   0.04690   0.51739   1.000
    C349    C    0.97696   0.90834   0.72170   1.000
    C350    C    0.91743   0.17204   0.58192   1.000
    O351    O    0.78897   0.82441   0.74786   1.000
    O352    O    0.88117   0.91673   0.72475   1.000
    O353    O    0.80648   0.84199   0.76523   1.000
    O354    O    0.86630   0.94363   0.75327   1.000
    O355    O    0.93031   0.88918   0.77824   1.000
    O356    O    0.99374   0.10659   0.60319   1.000
    O357    O    0.96902   0.15715   0.60330   1.000
    O358    O    0.96610   0.11604   0.57723   1.000
    O359    O    0.92851   0.10795   0.60000   1.000
    O360    O    0.00073   0.04203   0.50060   1.000
    O361    O    0.96133   0.03782   0.52229   1.000
    O362    O    0.91074   0.94621   0.68444   1.000
    O363    O    0.95654   0.99199   0.54751   1.000
    O364    O    0.95984   0.91888   0.73889   1.000
    O365    O    0.89668   0.97254   0.71343   1.000
    O366    O    0.94145   0.16590   0.57773   1.000
    O367    O    0.91093   0.09263   0.65057   1.000
    Cr368   Cr   0.59230   0.30577   0.96616   1.000
    Cr369   Cr   0.71966   0.44652   0.89037   1.000
    C370    C    0.77511   0.41937   0.86780   1.000
    C371    C    0.62499   0.28742   0.99695   1.000
    C372    C    0.58169   0.36196   0.95039   1.000
    C373    C    0.51739   0.45770   0.97801   1.000
    C374    C    0.72170   0.39300   0.97696   1.000
    C375    C    0.58192   0.32862   0.91743   1.000
    O376    O    0.74786   0.63876   0.78897   1.000
    O377    O    0.72475   0.47735   0.88117   1.000
    O378    O    0.76523   0.58630   0.80648   1.000
    O379    O    0.75327   0.43680   0.86630   1.000
    O380    O    0.77824   0.40227   0.93031   1.000
    O381    O    0.60319   0.29648   0.99374   1.000
    O382    O    0.60330   0.27054   0.96902   1.000
    O383    O    0.57723   0.34063   0.96610   1.000
    O384    O    0.60000   0.36353   0.92851   1.000
    O385    O    0.50060   0.45664   0.00073   1.000
    O386    O    0.52229   0.47857   0.96133   1.000
    O387    O    0.68444   0.45860   0.91074   1.000
    O388    O    0.54751   0.50396   0.95654   1.000
    O389    O    0.73889   0.38238   0.95984   1.000
    O390    O    0.71343   0.41736   0.89668   1.000
    O391    O    0.57773   0.31492   0.94145   1.000
    O392    O    0.65057   0.34586   0.91093   1.000
    Cr393   Cr   0.30577   0.59230   0.13577   1.000
    Cr394   Cr   0.44652   0.71966   0.94344   1.000
    C395    C    0.41937   0.77511   0.93773   1.000
    C396    C    0.28742   0.62499   0.09064   1.000
    C397    C    0.36196   0.58169   0.10596   1.000
    C398    C    0.45770   0.51739   0.04690   1.000
    C399    C    0.39300   0.72170   0.90834   1.000
    C400    C    0.32862   0.58192   0.17204   1.000
    O401    O    0.63876   0.74786   0.82441   1.000
    O402    O    0.47735   0.72475   0.91673   1.000
    O403    O    0.58630   0.76523   0.84199   1.000
    O404    O    0.43680   0.75327   0.94363   1.000
    O405    O    0.40227   0.77824   0.88918   1.000
    O406    O    0.29648   0.60319   0.10659   1.000
    O407    O    0.27054   0.60330   0.15715   1.000
    O408    O    0.34063   0.57723   0.11604   1.000
    O409    O    0.36353   0.60000   0.10795   1.000
    O410    O    0.45664   0.50060   0.04203   1.000
    O411    O    0.47857   0.52229   0.03782   1.000
    O412    O    0.45860   0.68444   0.94621   1.000
    O413    O    0.50396   0.54751   0.99199   1.000
    O414    O    0.38238   0.73889   0.91888   1.000
    O415    O    0.41736   0.71343   0.97254   1.000
    O416    O    0.31492   0.57773   0.16590   1.000
    O417    O    0.34586   0.65057   0.09263   1.000
    O418    O    0.80648   0.58630   0.76523   1.000
    O419    O    0.86630   0.43680   0.75327   1.000
    O420    O    0.93031   0.40227   0.77824   1.000
    O421    O    0.99374   0.29648   0.60319   1.000
    O422    O    0.96902   0.27054   0.60330   1.000
    O423    O    0.96610   0.34063   0.57723   1.000
    O424    O    0.92851   0.36353   0.60000   1.000
    O425    O    0.00073   0.45664   0.50060   1.000
    O426    O    0.96133   0.47857   0.52229   1.000
    O427    O    0.91074   0.45860   0.68444   1.000
    O428    O    0.95654   0.50396   0.54751   1.000
    O429    O    0.95984   0.38238   0.73889   1.000
    O430    O    0.89668   0.41736   0.71343   1.000
    O431    O    0.94145   0.31492   0.57773   1.000
    O432    O    0.91093   0.34586   0.65057   1.000
    Cr433   Cr   0.59230   0.13577   0.30577   1.000
    Cr434   Cr   0.71966   0.94344   0.44652   1.000
    C435    C    0.77511   0.93773   0.41937   1.000
    C436    C    0.62499   0.09064   0.28742   1.000
    C437    C    0.58169   0.10596   0.36196   1.000
    C438    C    0.51739   0.04690   0.45770   1.000
    C439    C    0.72170   0.90834   0.39300   1.000
    C440    C    0.58192   0.17204   0.32862   1.000
    O441    O    0.74786   0.82441   0.63876   1.000
    O442    O    0.72475   0.91673   0.47735   1.000
    O443    O    0.76523   0.84199   0.58630   1.000
    O444    O    0.75327   0.94363   0.43680   1.000
    O445    O    0.77824   0.88918   0.40227   1.000
    O446    O    0.60319   0.10659   0.29648   1.000
    O447    O    0.60330   0.15715   0.27054   1.000
    O448    O    0.57723   0.11604   0.34063   1.000
    O449    O    0.60000   0.10795   0.36353   1.000
    O450    O    0.50060   0.04203   0.45664   1.000
    O451    O    0.52229   0.03782   0.47857   1.000
    O452    O    0.68444   0.94621   0.45860   1.000
    O453    O    0.54751   0.99199   0.50396   1.000
    O454    O    0.73889   0.91888   0.38238   1.000
    O455    O    0.71343   0.97254   0.41736   1.000
    O456    O    0.57773   0.16590   0.31492   1.000
    O457    O    0.65057   0.09263   0.34586   1.000
    Cr458   Cr   0.30577   0.96616   0.59230   1.000
    Cr459   Cr   0.44652   0.89037   0.71966   1.000
    C460    C    0.41937   0.86780   0.77511   1.000
    C461    C    0.28742   0.99695   0.62499   1.000
    C462    C    0.36196   0.95039   0.58169   1.000
    C463    C    0.45770   0.97801   0.51739   1.000
    C464    C    0.39300   0.97696   0.72170   1.000
    C465    C    0.32862   0.91743   0.58192   1.000
    O466    O    0.63876   0.78897   0.74786   1.000
    O467    O    0.47735   0.88117   0.72475   1.000
    O468    O    0.58630   0.80648   0.76523   1.000
    O469    O    0.43680   0.86630   0.75327   1.000
    O470    O    0.40227   0.93031   0.77824   1.000
    O471    O    0.29648   0.99374   0.60319   1.000
    O472    O    0.27054   0.96902   0.60330   1.000
    O473    O    0.34063   0.96610   0.57723   1.000
    O474    O    0.36353   0.92851   0.60000   1.000
    O475    O    0.45664   0.00073   0.50060   1.000
    O476    O    0.47857   0.96133   0.52229   1.000
    O477    O    0.45860   0.91074   0.68444   1.000
    O478    O    0.50396   0.95654   0.54751   1.000
    O479    O    0.38238   0.95984   0.73889   1.000
    O480    O    0.41736   0.89668   0.71343   1.000
    O481    O    0.31492   0.94145   0.57773   1.000
    O482    O    0.34586   0.91093   0.65057   1.000
    Cr483   Cr   0.13577   0.59230   0.96616   1.000
    Cr484   Cr   0.94344   0.71966   0.89037   1.000
    C485    C    0.93773   0.77511   0.86780   1.000
    C486    C    0.09064   0.62499   0.99695   1.000
    C487    C    0.10596   0.58169   0.95039   1.000
    C488    C    0.04690   0.51739   0.97801   1.000
    C489    C    0.90834   0.72170   0.97696   1.000
    C490    C    0.17204   0.58192   0.91743   1.000
    O491    O    0.82441   0.74786   0.78897   1.000
    O492    O    0.91673   0.72475   0.88117   1.000
    O493    O    0.84199   0.76523   0.80648   1.000
    O494    O    0.94363   0.75327   0.86630   1.000
    O495    O    0.88918   0.77824   0.93031   1.000
    O496    O    0.10659   0.60319   0.99374   1.000
    O497    O    0.15715   0.60330   0.96902   1.000
    O498    O    0.11604   0.57723   0.96610   1.000
    O499    O    0.10795   0.60000   0.92851   1.000
    O500    O    0.04203   0.50060   0.00073   1.000
    O501    O    0.03782   0.52229   0.96133   1.000
    O502    O    0.94621   0.68444   0.91074   1.000
    O503    O    0.99199   0.54751   0.95654   1.000
    O504    O    0.91888   0.73889   0.95984   1.000
    O505    O    0.97254   0.71343   0.89668   1.000
    O506    O    0.16590   0.57773   0.94145   1.000
    O507    O    0.09263   0.65057   0.91093   1.000
    Cr508   Cr   0.96616   0.30577   0.13577   1.000
    Cr509   Cr   0.89037   0.44652   0.94344   1.000
    C510    C    0.86780   0.41937   0.93773   1.000
    C511    C    0.99695   0.28742   0.09064   1.000
    C512    C    0.95039   0.36196   0.10596   1.000
    C513    C    0.97801   0.45770   0.04690   1.000
    C514    C    0.97696   0.39300   0.90834   1.000
    C515    C    0.91743   0.32862   0.17204   1.000
    O516    O    0.78897   0.63876   0.82441   1.000
    O517    O    0.88117   0.47735   0.91673   1.000
    O518    O    0.80648   0.58630   0.84199   1.000
    O519    O    0.86630   0.43680   0.94363   1.000
    O520    O    0.93031   0.40227   0.88918   1.000
    O521    O    0.99374   0.29648   0.10659   1.000
    O522    O    0.96902   0.27054   0.15715   1.000
    O523    O    0.96610   0.34063   0.11604   1.000
    O524    O    0.92851   0.36353   0.10795   1.000
    O525    O    0.00073   0.45664   0.04203   1.000
    O526    O    0.96133   0.47857   0.03782   1.000
    O527    O    0.91074   0.45860   0.94621   1.000
    O528    O    0.95654   0.50396   0.99199   1.000
    O529    O    0.95984   0.38238   0.91888   1.000
    O530    O    0.89668   0.41736   0.97254   1.000
    O531    O    0.94145   0.31492   0.16590   1.000
    O532    O    0.91093   0.34586   0.09263   1.000
    Cr533   Cr   0.96616   0.59230   0.30577   1.000
    Cr534   Cr   0.89037   0.71966   0.44652   1.000
    C535    C    0.86780   0.77511   0.41937   1.000
    C536    C    0.99695   0.62499   0.28742   1.000
    C537    C    0.95039   0.58169   0.36196   1.000
    C538    C    0.97801   0.51739   0.45770   1.000
    C539    C    0.97696   0.72170   0.39300   1.000
    C540    C    0.91743   0.58192   0.32862   1.000
    O541    O    0.78897   0.74786   0.63876   1.000
    O542    O    0.88117   0.72475   0.47735   1.000
    O543    O    0.80648   0.76523   0.58630   1.000
    O544    O    0.86630   0.75327   0.43680   1.000
    O545    O    0.93031   0.77824   0.40227   1.000
    O546    O    0.99374   0.60319   0.29648   1.000
    O547    O    0.96902   0.60330   0.27054   1.000
    O548    O    0.96610   0.57723   0.34063   1.000
    O549    O    0.92851   0.60000   0.36353   1.000
    O550    O    0.00073   0.50060   0.45664   1.000
    O551    O    0.96133   0.52229   0.47857   1.000
    O552    O    0.91074   0.68444   0.45860   1.000
    O553    O    0.95654   0.54751   0.50396   1.000
    O554    O    0.95984   0.73889   0.38238   1.000
    O555    O    0.89668   0.71343   0.41736   1.000
    O556    O    0.94145   0.57773   0.31492   1.000
    O557    O    0.91093   0.65057   0.34586   1.000
    Cr558   Cr   0.13577   0.30577   0.59230   1.000
    Cr559   Cr   0.94344   0.44652   0.71966   1.000
    C560    C    0.93773   0.41937   0.77511   1.000
    C561    C    0.09064   0.28742   0.62499   1.000
    C562    C    0.10596   0.36196   0.58169   1.000
    C563    C    0.04690   0.45770   0.51739   1.000
    C564    C    0.90834   0.39300   0.72170   1.000
    C565    C    0.17204   0.32862   0.58192   1.000
    O566    O    0.82441   0.63876   0.74786   1.000
    O567    O    0.91673   0.47735   0.72475   1.000
    O568    O    0.84199   0.58630   0.76523   1.000
    O569    O    0.94363   0.43680   0.75327   1.000
    O570    O    0.88918   0.40227   0.77824   1.000
    O571    O    0.10659   0.29648   0.60319   1.000
    O572    O    0.15715   0.27054   0.60330   1.000
    O573    O    0.11604   0.34063   0.57723   1.000
    O574    O    0.10795   0.36353   0.60000   1.000
    O575    O    0.04203   0.45664   0.50060   1.000
    O576    O    0.03782   0.47857   0.52229   1.000
    O577    O    0.94621   0.45860   0.68444   1.000
    O578    O    0.99199   0.50396   0.54751   1.000
    O579    O    0.91888   0.38238   0.73889   1.000
    O580    O    0.97254   0.41736   0.71343   1.000
    O581    O    0.16590   0.31492   0.57773   1.000
    O582    O    0.09263   0.34586   0.65057   1.000
    Cr583   Cr   0.30577   0.13577   0.96616   1.000
    Cr584   Cr   0.44652   0.94344   0.89037   1.000
    C585    C    0.41937   0.93773   0.86780   1.000
    C586    C    0.28742   0.09064   0.99695   1.000
    C587    C    0.36196   0.10596   0.95039   1.000
    C588    C    0.45770   0.04690   0.97801   1.000
    C589    C    0.39300   0.90834   0.97696   1.000
    C590    C    0.32862   0.17204   0.91743   1.000
    O591    O    0.63876   0.82441   0.78897   1.000
    O592    O    0.47735   0.91673   0.88117   1.000
    O593    O    0.58630   0.84199   0.80648   1.000
    O594    O    0.43680   0.94363   0.86630   1.000
    O595    O    0.40227   0.88918   0.93031   1.000
    O596    O    0.29648   0.10659   0.99374   1.000
    O597    O    0.27054   0.15715   0.96902   1.000
    O598    O    0.34063   0.11604   0.96610   1.000
    O599    O    0.36353   0.10795   0.92851   1.000
    O600    O    0.45664   0.04203   0.00073   1.000
    O601    O    0.47857   0.03782   0.96133   1.000
    O602    O    0.45860   0.94621   0.91074   1.000
    O603    O    0.50396   0.99199   0.95654   1.000
    O604    O    0.38238   0.91888   0.95984   1.000
    O605    O    0.41736   0.97254   0.89668   1.000
    O606    O    0.31492   0.16590   0.94145   1.000
    O607    O    0.34586   0.09263   0.91093   1.000
    Cr608   Cr   0.59230   0.96616   0.13577   1.000
    Cr609   Cr   0.71966   0.89037   0.94344   1.000
    C610    C    0.77511   0.86780   0.93773   1.000
    C611    C    0.62499   0.99695   0.09064   1.000
    C612    C    0.58169   0.95039   0.10596   1.000
    C613    C    0.51739   0.97801   0.04690   1.000
    C614    C    0.72170   0.97696   0.90834   1.000
    C615    C    0.58192   0.91743   0.17204   1.000
    O616    O    0.74786   0.78897   0.82441   1.000
    O617    O    0.72475   0.88117   0.91673   1.000
    O618    O    0.76523   0.80648   0.84199   1.000
    O619    O    0.75327   0.86630   0.94363   1.000
    O620    O    0.77824   0.93031   0.88918   1.000
    O621    O    0.60319   0.99374   0.10659   1.000
    O622    O    0.60330   0.96902   0.15715   1.000
    O623    O    0.57723   0.96610   0.11604   1.000
    O624    O    0.60000   0.92851   0.10795   1.000
    O625    O    0.50060   0.00073   0.04203   1.000
    O626    O    0.52229   0.96133   0.03782   1.000
    O627    O    0.68444   0.91074   0.94621   1.000
    O628    O    0.54751   0.95654   0.99199   1.000
    O629    O    0.73889   0.95984   0.91888   1.000
    O630    O    0.71343   0.89668   0.97254   1.000
    O631    O    0.57773   0.94145   0.16590   1.000
    O632    O    0.65057   0.91093   0.09263   1.000
    Cr633   Cr   0.13577   0.96616   0.59230   1.000
    Cr634   Cr   0.94344   0.89037   0.71966   1.000
    C635    C    0.93773   0.86780   0.77511   1.000
    C636    C    0.09064   0.99695   0.62499   1.000
    C637    C    0.10596   0.95039   0.58169   1.000
    C638    C    0.04690   0.97801   0.51739   1.000
    C639    C    0.90834   0.97696   0.72170   1.000
    O640    O    0.12500   0.93992   0.62500   1.000
    Cr641   Cr   0.90935   0.12500   0.34065   1.000
    O642    O    0.93992   0.12500   0.31008   1.000
    Cr643   Cr   0.62500   0.34065   0.12500   1.000
    O644    O    0.62500   0.31008   0.12500   1.000
    Cr645   Cr   0.34065   0.62500   0.90935   1.000
    O646    O    0.31008   0.62500   0.93992   1.000
    Cr647   Cr   0.62500   0.12500   0.90935   1.000
    O648    O    0.62500   0.12500   0.93992   1.000
    Cr649   Cr   0.34065   0.90935   0.12500   1.000
    O650    O    0.31008   0.93992   0.12500   1.000
    Cr651   Cr   0.12500   0.62500   0.34065   1.000
    O652    O    0.12500   0.62500   0.31008   1.000
    Cr653   Cr   0.90935   0.34065   0.62500   1.000
    O654    O    0.93992   0.31008   0.62500   1.000
    Cr655   Cr   0.90935   0.62500   0.12500   1.000
    O656    O    0.93992   0.62500   0.12500   1.000
    Cr657   Cr   0.12500   0.34065   0.90935   1.000
    O658    O    0.12500   0.31008   0.93992   1.000
    Cr659   Cr   0.34065   0.12500   0.62500   1.000
    O660    O    0.31008   0.12500   0.62500   1.000
    Cr661   Cr   0.62500   0.90935   0.34065   1.000
    O662    O    0.62500   0.93992   0.31008   1.000
    Cr663   Cr   0.22983   0.22983   0.77017   1.000
    O664    O    0.25157   0.25157   0.74843   1.000
    Cr665   Cr   0.77017   0.77017   0.22983   1.000
    O666    O    0.74843   0.74843   0.25157   1.000
    Cr667   Cr   0.77017   0.22983   0.22983   1.000
    O668    O    0.74843   0.25157   0.25157   1.000
    Cr669   Cr   0.22983   0.77017   0.77017   1.000
    O670    O    0.25157   0.74843   0.74843   1.000
    Cr671   Cr   0.22983   0.77017   0.22983   1.000
    O672    O    0.25157   0.74843   0.25157   1.000
    Cr673   Cr   0.77017   0.22983   0.77017   1.000
    O674    O    0.74843   0.25157   0.74843   1.000
    Cr675   Cr   0.02017   0.02017   0.47983   1.000
    O676    O    0.99843   0.99843   0.50157   1.000
    Cr677   Cr   0.47983   0.47983   0.02017   1.000
    O678    O    0.50157   0.50157   0.99843   1.000
    Cr679   Cr   0.47983   0.02017   0.47983   1.000
    O680    O    0.50157   0.99843   0.50157   1.000
    Cr681   Cr   0.02017   0.47983   0.02017   1.000
    O682    O    0.99843   0.50157   0.99843   1.000
    Cr683   Cr   0.02017   0.47983   0.47983   1.000
    O684    O    0.99843   0.50157   0.50157   1.000
    Cr685   Cr   0.47983   0.02017   0.02017   1.000
    O686    O    0.50157   0.99843   0.99843   1.000
    Cr687   Cr   0.23592   0.28896   0.73756   1.000
    Cr688   Cr   0.28896   0.23592   0.73756   1.000
    Cr689   Cr   0.96616   0.13577   0.30577   1.000
    Cr690   Cr   0.89037   0.94344   0.44652   1.000
    C691    C    0.86780   0.93773   0.41937   1.000
    C692    C    0.99695   0.09064   0.28742   1.000
    C693    C    0.95039   0.10596   0.36196   1.000
    C694    C    0.97801   0.04690   0.45770   1.000
    C695    C    0.97696   0.90834   0.39300   1.000
    C696    C    0.91743   0.17204   0.32862   1.000
    O697    O    0.78897   0.82441   0.63876   1.000
    O698    O    0.88117   0.91673   0.47735   1.000
    O699    O    0.80648   0.84199   0.58630   1.000
    O700    O    0.86630   0.94363   0.43680   1.000
    O701    O    0.93031   0.88918   0.40227   1.000
    O702    O    0.99374   0.10659   0.29648   1.000
    O703    O    0.96902   0.15715   0.27054   1.000
    O704    O    0.96610   0.11604   0.34063   1.000
    O705    O    0.92851   0.10795   0.36353   1.000
    O706    O    0.00073   0.04203   0.45664   1.000
    O707    O    0.96133   0.03782   0.47857   1.000
    O708    O    0.91074   0.94621   0.45860   1.000
    O709    O    0.95654   0.99199   0.50396   1.000
    O710    O    0.95984   0.91888   0.38238   1.000
    O711    O    0.89668   0.97254   0.41736   1.000
    O712    O    0.94145   0.16590   0.31492   1.000
    O713    O    0.91093   0.09263   0.34586   1.000
    Cr714   Cr   0.59230   0.30577   0.13577   1.000
    Cr715   Cr   0.71966   0.44652   0.94344   1.000
    C716    C    0.77511   0.41937   0.93773   1.000
    C717    C    0.62499   0.28742   0.09064   1.000
    C718    C    0.58169   0.36196   0.10596   1.000
    C719    C    0.51739   0.45770   0.04690   1.000
    C720    C    0.72170   0.39300   0.90834   1.000
    C721    C    0.58192   0.32862   0.17204   1.000
    O722    O    0.74786   0.63876   0.82441   1.000
    O723    O    0.72475   0.47735   0.91673   1.000
    O724    O    0.76523   0.58630   0.84199   1.000
    O725    O    0.75327   0.43680   0.94363   1.000
    O726    O    0.77824   0.40227   0.88918   1.000
    O727    O    0.60319   0.29648   0.10659   1.000
    O728    O    0.60330   0.27054   0.15715   1.000
    O729    O    0.57723   0.34063   0.11604   1.000
    O730    O    0.60000   0.36353   0.10795   1.000
    O731    O    0.50060   0.45664   0.04203   1.000
    O732    O    0.52229   0.47857   0.03782   1.000
    O733    O    0.68444   0.45860   0.94621   1.000
    O734    O    0.54751   0.50396   0.99199   1.000
    O735    O    0.73889   0.38238   0.91888   1.000
    O736    O    0.71343   0.41736   0.97254   1.000
    O737    O    0.57773   0.31492   0.16590   1.000
    O738    O    0.65057   0.34586   0.09263   1.000
    Cr739   Cr   0.30577   0.59230   0.96616   1.000
    Cr740   Cr   0.44652   0.71966   0.89037   1.000
    C741    C    0.41937   0.77511   0.86780   1.000
    C742    C    0.28742   0.62499   0.99695   1.000
    C743    C    0.36196   0.58169   0.95039   1.000
    C744    C    0.45770   0.51739   0.97801   1.000
    C745    C    0.39300   0.72170   0.97696   1.000
    C746    C    0.32862   0.58192   0.91743   1.000
    O747    O    0.63876   0.74786   0.78897   1.000
    O748    O    0.47735   0.72475   0.88117   1.000
    O749    O    0.58630   0.76523   0.80648   1.000
    O750    O    0.43680   0.75327   0.86630   1.000
    O751    O    0.40227   0.77824   0.93031   1.000
    O752    O    0.29648   0.60319   0.99374   1.000
    O753    O    0.27054   0.60330   0.96902   1.000
    O754    O    0.34063   0.57723   0.96610   1.000
    O755    O    0.36353   0.60000   0.92851   1.000
    O756    O    0.45664   0.50060   0.00073   1.000
    O757    O    0.47857   0.52229   0.96133   1.000
    O758    O    0.45860   0.68444   0.91074   1.000
    O759    O    0.50396   0.54751   0.95654   1.000
    O760    O    0.38238   0.73889   0.95984   1.000
    O761    O    0.41736   0.71343   0.89668   1.000
    O762    O    0.31492   0.57773   0.94145   1.000
    O763    O    0.34586   0.65057   0.91093   1.000
    Cr764   Cr   0.59230   0.13577   0.96616   1.000
    Cr765   Cr   0.71966   0.94344   0.89037   1.000
    C766    C    0.77511   0.93773   0.86780   1.000
    C767    C    0.62499   0.09064   0.99695   1.000
    C768    C    0.58169   0.10596   0.95039   1.000
    C769    C    0.51739   0.04690   0.97801   1.000
    C770    C    0.72170   0.90834   0.97696   1.000
    C771    C    0.58192   0.17204   0.91743   1.000
    O772    O    0.74786   0.82441   0.78897   1.000
    O773    O    0.72475   0.91673   0.88117   1.000
    O774    O    0.76523   0.84199   0.80648   1.000
    O775    O    0.75327   0.94363   0.86630   1.000
    O776    O    0.77824   0.88918   0.93031   1.000
    O777    O    0.60319   0.10659   0.99374   1.000
    O778    O    0.60330   0.15715   0.96902   1.000
    O779    O    0.57723   0.11604   0.96610   1.000
    O780    O    0.60000   0.10795   0.92851   1.000
    O781    O    0.50060   0.04203   0.00073   1.000
    O782    O    0.52229   0.03782   0.96133   1.000
    O783    O    0.68444   0.94621   0.91074   1.000
    O784    O    0.54751   0.99199   0.95654   1.000
    O785    O    0.73889   0.91888   0.95984   1.000
    O786    O    0.71343   0.97254   0.89668   1.000
    O787    O    0.57773   0.16590   0.94145   1.000
    O788    O    0.65057   0.09263   0.91093   1.000
    Cr789   Cr   0.30577   0.96616   0.13577   1.000
    Cr790   Cr   0.44652   0.89037   0.94344   1.000
    C791    C    0.41937   0.86780   0.93773   1.000
    C792    C    0.28742   0.99695   0.09064   1.000
    C793    C    0.36196   0.95039   0.10596   1.000
    C794    C    0.45770   0.97801   0.04690   1.000
    C795    C    0.39300   0.97696   0.90834   1.000
    C796    C    0.32862   0.91743   0.17204   1.000
    O797    O    0.63876   0.78897   0.82441   1.000
    O798    O    0.47735   0.88117   0.91673   1.000
    O799    O    0.58630   0.80648   0.84199   1.000
    O800    O    0.43680   0.86630   0.94363   1.000
    O801    O    0.40227   0.93031   0.88918   1.000
    O802    O    0.29648   0.99374   0.10659   1.000
    O803    O    0.27054   0.96902   0.15715   1.000
    O804    O    0.34063   0.96610   0.11604   1.000
    O805    O    0.36353   0.92851   0.10795   1.000
    O806    O    0.45664   0.00073   0.04203   1.000
    O807    O    0.47857   0.96133   0.03782   1.000
    O808    O    0.45860   0.91074   0.94621   1.000
    O809    O    0.50396   0.95654   0.99199   1.000
    O810    O    0.38238   0.95984   0.91888   1.000
    O811    O    0.41736   0.89668   0.97254   1.000
    O812    O    0.31492   0.94145   0.16590   1.000
    O813    O    0.34586   0.91093   0.09263   1.000
    Cr814   Cr   0.13577   0.59230   0.30577   1.000
    Cr815   Cr   0.94344   0.71966   0.44652   1.000
    C816    C    0.93773   0.77511   0.41937   1.000
    C817    C    0.09064   0.62499   0.28742   1.000
    C818    C    0.10596   0.58169   0.36196   1.000
    C819    C    0.04690   0.51739   0.45770   1.000
    C820    C    0.90834   0.72170   0.39300   1.000
    C821    C    0.17204   0.58192   0.32862   1.000
    O822    O    0.82441   0.74786   0.63876   1.000
    O823    O    0.91673   0.72475   0.47735   1.000
    O824    O    0.84199   0.76523   0.58630   1.000
    O825    O    0.94363   0.75327   0.43680   1.000
    O826    O    0.88918   0.77824   0.40227   1.000
    O827    O    0.10659   0.60319   0.29648   1.000
    O828    O    0.15715   0.60330   0.27054   1.000
    O829    O    0.11604   0.57723   0.34063   1.000
    O830    O    0.10795   0.60000   0.36353   1.000
    O831    O    0.04203   0.50060   0.45664   1.000
    O832    O    0.03782   0.52229   0.47857   1.000
    O833    O    0.94621   0.68444   0.45860   1.000
    O834    O    0.99199   0.54751   0.50396   1.000
    O835    O    0.91888   0.73889   0.38238   1.000
    O836    O    0.97254   0.71343   0.41736   1.000
    O837    O    0.16590   0.57773   0.31492   1.000
    O838    O    0.09263   0.65057   0.34586   1.000
    Cr839   Cr   0.96616   0.30577   0.59230   1.000
    Cr840   Cr   0.89037   0.44652   0.71966   1.000
    C841    C    0.86780   0.41937   0.77511   1.000
    C842    C    0.99695   0.28742   0.62499   1.000
    C843    C    0.95039   0.36196   0.58169   1.000
    C844    C    0.97801   0.45770   0.51739   1.000
    C845    C    0.97696   0.39300   0.72170   1.000
    C846    C    0.91743   0.32862   0.58192   1.000
    O847    O    0.78897   0.63876   0.74786   1.000
    O848    O    0.88117   0.47735   0.72475   1.000
    Cr849   Cr   0.96616   0.59230   0.13577   1.000
    Cr850   Cr   0.89037   0.71966   0.94344   1.000
    C851    C    0.86780   0.77511   0.93773   1.000
    C852    C    0.99695   0.62499   0.09064   1.000
    C853    C    0.95039   0.58169   0.10596   1.000
    C854    C    0.97801   0.51739   0.04690   1.000
    C855    C    0.97696   0.72170   0.90834   1.000
    C856    C    0.91743   0.58192   0.17204   1.000
    O857    O    0.78897   0.74786   0.82441   1.000
    O858    O    0.88117   0.72475   0.91673   1.000
    O859    O    0.80648   0.76523   0.84199   1.000
    O860    O    0.86630   0.75327   0.94363   1.000
    O861    O    0.93031   0.77824   0.88918   1.000
    O862    O    0.99374   0.60319   0.10659   1.000
    O863    O    0.96902   0.60330   0.15715   1.000
    O864    O    0.96610   0.57723   0.11604   1.000
    O865    O    0.92851   0.60000   0.10795   1.000
    O866    O    0.00073   0.50060   0.04203   1.000
    O867    O    0.96133   0.52229   0.03782   1.000
    O868    O    0.91074   0.68444   0.94621   1.000
    O869    O    0.95654   0.54751   0.99199   1.000
    O870    O    0.95984   0.73889   0.91888   1.000
    O871    O    0.89668   0.71343   0.97254   1.000
    O872    O    0.94145   0.57773   0.16590   1.000
    O873    O    0.91093   0.65057   0.09263   1.000
    Cr874   Cr   0.13577   0.30577   0.96616   1.000
    Cr875   Cr   0.94344   0.44652   0.89037   1.000
    C876    C    0.93773   0.41937   0.86780   1.000
    C877    C    0.09064   0.28742   0.99695   1.000
    C878    C    0.10596   0.36196   0.95039   1.000
    C879    C    0.04690   0.45770   0.97801   1.000
    C880    C    0.90834   0.39300   0.97696   1.000
    C881    C    0.17204   0.32862   0.91743   1.000
    O882    O    0.82441   0.63876   0.78897   1.000
    O883    O    0.91673   0.47735   0.88117   1.000
    O884    O    0.84199   0.58630   0.80648   1.000
    O885    O    0.94363   0.43680   0.86630   1.000
    O886    O    0.88918   0.40227   0.93031   1.000
    O887    O    0.10659   0.29648   0.99374   1.000
    O888    O    0.15715   0.27054   0.96902   1.000
    O889    O    0.11604   0.34063   0.96610   1.000
    O890    O    0.10795   0.36353   0.92851   1.000
    O891    O    0.04203   0.45664   0.00073   1.000
    O892    O    0.03782   0.47857   0.96133   1.000
    O893    O    0.94621   0.45860   0.91074   1.000
    O894    O    0.99199   0.50396   0.95654   1.000
    O895    O    0.91888   0.38238   0.95984   1.000
    O896    O    0.97254   0.41736   0.89668   1.000
    O897    O    0.16590   0.31492   0.94145   1.000
    O898    O    0.09263   0.34586   0.91093   1.000
    Cr899   Cr   0.30577   0.13577   0.59230   1.000
    Cr900   Cr   0.44652   0.94344   0.71966   1.000
    C901    C    0.41937   0.93773   0.77511   1.000
    C902    C    0.28742   0.09064   0.62499   1.000
    C903    C    0.36196   0.10596   0.58169   1.000
    C904    C    0.45770   0.04690   0.51739   1.000
    C905    C    0.39300   0.90834   0.72170   1.000
    C906    C    0.32862   0.17204   0.58192   1.000
    O907    O    0.63876   0.82441   0.74786   1.000
    O908    O    0.47735   0.91673   0.72475   1.000
    O909    O    0.58630   0.84199   0.76523   1.000
    O910    O    0.43680   0.94363   0.75327   1.000
    O911    O    0.40227   0.88918   0.77824   1.000
    O912    O    0.29648   0.10659   0.60319   1.000
    O913    O    0.27054   0.15715   0.60330   1.000
    O914    O    0.34063   0.11604   0.57723   1.000
    O915    O    0.36353   0.10795   0.60000   1.000
    O916    O    0.45664   0.04203   0.50060   1.000
    O917    O    0.47857   0.03782   0.52229   1.000
    O918    O    0.45860   0.94621   0.68444   1.000
    O919    O    0.50396   0.99199   0.54751   1.000
    O920    O    0.38238   0.91888   0.73889   1.000
    O921    O    0.41736   0.97254   0.71343   1.000
    O922    O    0.31492   0.16590   0.57773   1.000
    O923    O    0.34586   0.09263   0.65057   1.000
    Cr924   Cr   0.59230   0.96616   0.30577   1.000
    Cr925   Cr   0.71966   0.89037   0.44652   1.000
    C926    C    0.77511   0.86780   0.41937   1.000
    C927    C    0.62499   0.99695   0.28742   1.000
    C928    C    0.58169   0.95039   0.36196   1.000
    C929    C    0.51739   0.97801   0.45770   1.000
    C930    C    0.72170   0.97696   0.39300   1.000
    C931    C    0.58192   0.91743   0.32862   1.000
    O932    O    0.74786   0.78897   0.63876   1.000
    O933    O    0.72475   0.88117   0.47735   1.000
    O934    O    0.76523   0.80648   0.58630   1.000
    O935    O    0.75327   0.86630   0.43680   1.000
    O936    O    0.77824   0.93031   0.40227   1.000
    O937    O    0.60319   0.99374   0.29648   1.000
    O938    O    0.60330   0.96902   0.27054   1.000
    O939    O    0.57723   0.96610   0.34063   1.000
    O940    O    0.60000   0.92851   0.36353   1.000
    O941    O    0.50060   0.00073   0.45664   1.000
    O942    O    0.52229   0.96133   0.47857   1.000
    O943    O    0.68444   0.91074   0.45860   1.000
    O944    O    0.54751   0.95654   0.50396   1.000
    O945    O    0.73889   0.95984   0.38238   1.000
    O946    O    0.71343   0.89668   0.41736   1.000
    O947    O    0.57773   0.94145   0.31492   1.000
    O948    O    0.65057   0.91093   0.34586   1.000
    Cr949   Cr   0.11423   0.28384   0.94423   1.000
    Cr950   Cr   0.30656   0.35963   0.80348   1.000
    C951    C    0.31227   0.38220   0.83063   1.000
    C952    C    0.15936   0.25305   0.96258   1.000
    C953    C    0.14404   0.29961   0.88804   1.000
    C954    C    0.20310   0.27199   0.79230   1.000
    C955    C    0.34166   0.27304   0.85700   1.000
    C956    C    0.07796   0.33257   0.92138   1.000
    O957    O    0.42559   0.46103   0.61124   1.000
    O958    O    0.33327   0.36883   0.77265   1.000
    O959    O    0.40801   0.44352   0.66370   1.000
    O960    O    0.30637   0.38370   0.81320   1.000
    O961    O    0.36082   0.31969   0.84773   1.000
    O962    O    0.14341   0.25626   0.95352   1.000
    O963    O    0.09285   0.28098   0.97946   1.000
    O964    O    0.13396   0.28390   0.90937   1.000
    O965    O    0.14205   0.32149   0.88647   1.000
    O966    O    0.20797   0.24927   0.79336   1.000
    O967    O    0.21218   0.28867   0.77143   1.000
    O968    O    0.30379   0.33926   0.79140   1.000
    O969    O    0.25801   0.29346   0.74604   1.000
    O970    O    0.33112   0.29016   0.86762   1.000
    O971    O    0.27746   0.35332   0.83264   1.000
    O972    O    0.08410   0.30855   0.93508   1.000
    O973    O    0.15737   0.33907   0.90414   1.000
    Cr974   Cr   0.28384   0.11423   0.65770   1.000
    Cr975   Cr   0.35963   0.30656   0.53034   1.000
    C976    C    0.38220   0.31227   0.47489   1.000
    C977    C    0.25305   0.15936   0.62501   1.000
    C978    C    0.29961   0.14404   0.66831   1.000
    C979    C    0.27199   0.20310   0.73261   1.000
    C980    C    0.27304   0.34166   0.52830   1.000
    C981    C    0.33257   0.07796   0.66808   1.000
    O982    O    0.46103   0.42559   0.50214   1.000
    O983    O    0.36883   0.33327   0.52525   1.000
    O984    O    0.44352   0.40801   0.48477   1.000
    O985    O    0.38370   0.30637   0.49673   1.000
    O986    O    0.31969   0.36082   0.47176   1.000
    O987    O    0.25626   0.14341   0.64681   1.000
    O988    O    0.28098   0.09285   0.64670   1.000
    O989    O    0.28390   0.13396   0.67277   1.000
    O990    O    0.32149   0.14205   0.65000   1.000
    O991    O    0.24927   0.20797   0.74940   1.000
    O992    O    0.28867   0.21218   0.72771   1.000
    O993    O    0.33926   0.30379   0.56556   1.000
    O994    O    0.29346   0.25801   0.70249   1.000
    O995    O    0.29016   0.33112   0.51111   1.000
    O996    O    0.35332   0.27746   0.53657   1.000
    O997    O    0.30855   0.08410   0.67227   1.000
    O998    O    0.33907   0.15737   0.59943   1.000
    Cr999   Cr   0.65770   0.94423   0.28384   1.000
    Cr1000  Cr   0.53034   0.80348   0.35963   1.000
    C1001   C    0.47489   0.83063   0.38220   1.000
    C1002   C    0.62501   0.96258   0.25305   1.000
    C1003   C    0.66831   0.88804   0.29961   1.000
    C1004   C    0.73261   0.79230   0.27199   1.000
    C1005   C    0.52830   0.85700   0.27304   1.000
    C1006   C    0.66808   0.92138   0.33257   1.000
    O1007   O    0.50214   0.61124   0.46103   1.000
    O1008   O    0.52525   0.77265   0.36883   1.000
    O1009   O    0.48477   0.66370   0.44352   1.000
    O1010   O    0.49673   0.81320   0.38370   1.000
    O1011   O    0.47176   0.84773   0.31969   1.000
    O1012   O    0.64681   0.95352   0.25626   1.000
    O1013   O    0.64670   0.97946   0.28098   1.000
    O1014   O    0.67277   0.90937   0.28390   1.000
    O1015   O    0.65000   0.88647   0.32149   1.000
    O1016   O    0.74940   0.79336   0.24927   1.000
    O1017   O    0.72771   0.77143   0.28867   1.000
    O1018   O    0.56556   0.79140   0.33926   1.000
    O1019   O    0.70249   0.74604   0.29346   1.000
    O1020   O    0.51111   0.86762   0.29016   1.000
    O1021   O    0.53657   0.83264   0.35332   1.000
    O1022   O    0.67227   0.93508   0.30855   1.000
    O1023   O    0.59943   0.90414   0.33907   1.000
    Cr1024  Cr   0.94423   0.65770   0.11423   1.000
    Cr1025  Cr   0.80348   0.53034   0.30656   1.000
    C1026   C    0.83063   0.47489   0.31227   1.000
    C1027   C    0.96258   0.62501   0.15936   1.000
    C1028   C    0.88804   0.66831   0.14404   1.000
    C1029   C    0.79230   0.73261   0.20310   1.000
    C1030   C    0.85700   0.52830   0.34166   1.000
    C1031   C    0.92138   0.66808   0.07796   1.000
    O1032   O    0.61124   0.50214   0.42559   1.000
    O1033   O    0.77265   0.52525   0.33327   1.000
    O1034   O    0.66370   0.48477   0.40801   1.000
    O1035   O    0.81320   0.49673   0.30637   1.000
    O1036   O    0.84773   0.47176   0.36082   1.000
    O1037   O    0.95352   0.64681   0.14341   1.000
    O1038   O    0.97946   0.64670   0.09285   1.000
    O1039   O    0.90937   0.67277   0.13396   1.000
    O1040   O    0.88647   0.65000   0.14205   1.000
    O1041   O    0.79336   0.74940   0.20797   1.000
    O1042   O    0.77143   0.72771   0.21218   1.000
    O1043   O    0.79140   0.56556   0.30379   1.000
    O1044   O    0.74604   0.70249   0.25801   1.000
    O1045   O    0.86762   0.51111   0.33112   1.000
    O1046   O    0.83264   0.53657   0.27746   1.000
    O1047   O    0.93508   0.67227   0.08410   1.000
    O1048   O    0.90414   0.59943   0.15737   1.000
    Cr1049  Cr   0.65770   0.11423   0.94423   1.000
    Cr1050  Cr   0.53034   0.30656   0.80348   1.000
    C1051   C    0.47489   0.31227   0.83063   1.000
    C1052   C    0.62501   0.15936   0.96258   1.000
    C1053   C    0.66831   0.14404   0.88804   1.000
    C1054   C    0.73261   0.20310   0.79230   1.000
    C1055   C    0.52830   0.34166   0.85700   1.000
    C1056   C    0.66808   0.07796   0.92138   1.000
    O1057   O    0.50214   0.42559   0.61124   1.000
    O1058   O    0.52525   0.33327   0.77265   1.000
    O1059   O    0.48477   0.40801   0.66370   1.000
    O1060   O    0.49673   0.30637   0.81320   1.000
    O1061   O    0.47176   0.36082   0.84773   1.000
    O1062   O    0.64681   0.14341   0.95352   1.000
    O1063   O    0.64670   0.09285   0.97946   1.000
    O1064   O    0.67277   0.13396   0.90937   1.000
    O1065   O    0.65000   0.14205   0.88647   1.000
    O1066   O    0.74940   0.20797   0.79336   1.000
    O1067   O    0.72771   0.21218   0.77143   1.000
    O1068   O    0.56556   0.30379   0.79140   1.000
    O1069   O    0.70249   0.25801   0.74604   1.000
    O1070   O    0.51111   0.33112   0.86762   1.000
    O1071   O    0.53657   0.27746   0.83264   1.000
    O1072   O    0.67227   0.08410   0.93508   1.000
    O1073   O    0.59943   0.15737   0.90414   1.000
    Cr1074  Cr   0.94423   0.28384   0.65770   1.000
    Cr1075  Cr   0.80348   0.35963   0.53034   1.000
    C1076   C    0.83063   0.38220   0.47489   1.000
    C1077   C    0.96258   0.25305   0.62501   1.000
    C1078   C    0.88804   0.29961   0.66831   1.000
    C1079   C    0.79230   0.27199   0.73261   1.000
    C1080   C    0.85700   0.27304   0.52830   1.000
    C1081   C    0.92138   0.33257   0.66808   1.000
    O1082   O    0.61124   0.46103   0.50214   1.000
    O1083   O    0.77265   0.36883   0.52525   1.000
    O1084   O    0.66370   0.44352   0.48477   1.000
    O1085   O    0.81320   0.38370   0.49673   1.000
    O1086   O    0.84773   0.31969   0.47176   1.000
    O1087   O    0.95352   0.25626   0.64681   1.000
    O1088   O    0.97946   0.28098   0.64670   1.000
    O1089   O    0.90937   0.28390   0.67277   1.000
    O1090   O    0.88647   0.32149   0.65000   1.000
    O1091   O    0.79336   0.24927   0.74940   1.000
    O1092   O    0.77143   0.28867   0.72771   1.000
    O1093   O    0.79140   0.33926   0.56556   1.000
    O1094   O    0.74604   0.29346   0.70249   1.000
    O1095   O    0.86762   0.29016   0.51111   1.000
    O1096   O    0.83264   0.35332   0.53657   1.000
    O1097   O    0.93508   0.30855   0.67227   1.000
    O1098   O    0.90414   0.33907   0.59943   1.000
    Cr1099  Cr   0.11423   0.65770   0.28384   1.000
    Cr1100  Cr   0.30656   0.53034   0.35963   1.000
    C1101   C    0.31227   0.47489   0.38220   1.000
    C1102   C    0.15936   0.62501   0.25305   1.000
    C1103   C    0.14404   0.66831   0.29961   1.000
    C1104   C    0.20310   0.73261   0.27199   1.000
    C1105   C    0.34166   0.52830   0.27304   1.000
    C1106   C    0.07796   0.66808   0.33257   1.000
    O1107   O    0.42559   0.50214   0.46103   1.000
    O1108   O    0.33327   0.52525   0.36883   1.000
    O1109   O    0.40801   0.48477   0.44352   1.000
    O1110   O    0.30637   0.49673   0.38370   1.000
    O1111   O    0.36082   0.47176   0.31969   1.000
    O1112   O    0.14341   0.64681   0.25626   1.000
    O1113   O    0.09285   0.64670   0.28098   1.000
    O1114   O    0.13396   0.67277   0.28390   1.000
    O1115   O    0.14205   0.65000   0.32149   1.000
    O1116   O    0.20797   0.74940   0.24927   1.000
    O1117   O    0.21218   0.72771   0.28867   1.000
    O1118   O    0.30379   0.56556   0.33926   1.000
    O1119   O    0.25801   0.70249   0.29346   1.000
    O1120   O    0.33112   0.51111   0.29016   1.000
    O1121   O    0.27746   0.53657   0.35332   1.000
    O1122   O    0.08410   0.67227   0.30855   1.000
    O1123   O    0.15737   0.59943   0.33907   1.000
    Cr1124  Cr   0.28384   0.94423   0.11423   1.000
    Cr1125  Cr   0.35963   0.80348   0.30656   1.000
    C1126   C    0.38220   0.83063   0.31227   1.000
    C1127   C    0.25305   0.96258   0.15936   1.000
    C1128   C    0.29961   0.88804   0.14404   1.000
    C1129   C    0.27199   0.79230   0.20310   1.000
    C1130   C    0.27304   0.85700   0.34166   1.000
    C1131   C    0.33257   0.92138   0.07796   1.000
    O1132   O    0.46103   0.61124   0.42559   1.000
    O1133   O    0.36883   0.77265   0.33327   1.000
    O1134   O    0.44352   0.66370   0.40801   1.000
    O1135   O    0.38370   0.81320   0.30637   1.000
    O1136   O    0.31969   0.84773   0.36082   1.000
    O1137   O    0.25626   0.95352   0.14341   1.000
    O1138   O    0.28098   0.97946   0.09285   1.000
    O1139   O    0.28390   0.90937   0.13396   1.000
    O1140   O    0.32149   0.88647   0.14205   1.000
    O1141   O    0.24927   0.79336   0.20797   1.000
    O1142   O    0.28867   0.77143   0.21218   1.000
    O1143   O    0.33926   0.79140   0.30379   1.000
    O1144   O    0.29346   0.74604   0.25801   1.000
    O1145   O    0.29016   0.86762   0.33112   1.000
    O1146   O    0.35332   0.83264   0.27746   1.000
    O1147   O    0.30855   0.93508   0.08410   1.000
    O1148   O    0.33907   0.90414   0.15737   1.000
    Cr1149  Cr   0.28384   0.65770   0.94423   1.000
    Cr1150  Cr   0.35963   0.53034   0.80348   1.000
    C1151   C    0.38220   0.47489   0.83063   1.000
    C1152   C    0.25305   0.62501   0.96258   1.000
    C1153   C    0.29961   0.66831   0.88804   1.000
    C1154   C    0.27199   0.73261   0.79230   1.000
    C1155   C    0.27304   0.52830   0.85700   1.000
    C1156   C    0.33257   0.66808   0.92138   1.000
    O1157   O    0.46103   0.50214   0.61124   1.000
    O1158   O    0.36883   0.52525   0.77265   1.000
    O1159   O    0.44352   0.48477   0.66370   1.000
    O1160   O    0.38370   0.49673   0.81320   1.000
    O1161   O    0.31969   0.47176   0.84773   1.000
    O1162   O    0.25626   0.64681   0.95352   1.000
    O1163   O    0.28098   0.64670   0.97946   1.000
    O1164   O    0.28390   0.67277   0.90937   1.000
    O1165   O    0.32149   0.65000   0.88647   1.000
    O1166   O    0.24927   0.74940   0.79336   1.000
    O1167   O    0.28867   0.72771   0.77143   1.000
    O1168   O    0.33926   0.56556   0.79140   1.000
    O1169   O    0.29346   0.70249   0.74604   1.000
    O1170   O    0.29016   0.51111   0.86762   1.000
    O1171   O    0.35332   0.53657   0.83264   1.000
    O1172   O    0.30855   0.67227   0.93508   1.000
    O1173   O    0.33907   0.59943   0.90414   1.000
    Cr1174  Cr   0.11423   0.94423   0.65770   1.000
    Cr1175  Cr   0.30656   0.80348   0.53034   1.000
    C1176   C    0.31227   0.83063   0.47489   1.000
    C1177   C    0.15936   0.96258   0.62501   1.000
    C1178   C    0.14404   0.88804   0.66831   1.000
    C1179   C    0.20310   0.79230   0.73261   1.000
    C1180   C    0.34166   0.85700   0.52830   1.000
    C1181   C    0.07796   0.92138   0.66808   1.000
    O1182   O    0.42559   0.61124   0.50214   1.000
    O1183   O    0.33327   0.77265   0.52525   1.000
    O1184   O    0.40801   0.66370   0.48477   1.000
    O1185   O    0.30637   0.81320   0.49673   1.000
    O1186   O    0.36082   0.84773   0.47176   1.000
    O1187   O    0.14341   0.95352   0.64681   1.000
    O1188   O    0.09285   0.97946   0.64670   1.000
    O1189   O    0.13396   0.90937   0.67277   1.000
    O1190   O    0.14205   0.88647   0.65000   1.000
    O1191   O    0.20797   0.79336   0.74940   1.000
    O1192   O    0.21218   0.77143   0.72771   1.000
    O1193   O    0.30379   0.79140   0.56556   1.000
    O1194   O    0.25801   0.74604   0.70249   1.000
    O1195   O    0.33112   0.86762   0.51111   1.000
    O1196   O    0.27746   0.83264   0.53657   1.000
    O1197   O    0.08410   0.93508   0.67227   1.000
    O1198   O    0.15737   0.90414   0.59943   1.000
    Cr1199  Cr   0.94423   0.11423   0.28384   1.000
    Cr1200  Cr   0.80348   0.30656   0.35963   1.000
    C1201   C    0.83063   0.31227   0.38220   1.000
    C1202   C    0.96258   0.15936   0.25305   1.000
    C1203   C    0.88804   0.14404   0.29961   1.000
    C1204   C    0.79230   0.20310   0.27199   1.000
    C1205   C    0.85700   0.34166   0.27304   1.000
    C1206   C    0.92138   0.07796   0.33257   1.000
    O1207   O    0.61124   0.42559   0.46103   1.000
    O1208   O    0.77265   0.33327   0.36883   1.000
    O1209   O    0.66370   0.40801   0.44352   1.000
    O1210   O    0.81320   0.30637   0.38370   1.000
    O1211   O    0.84773   0.36082   0.31969   1.000
    O1212   O    0.95352   0.14341   0.25626   1.000
    O1213   O    0.97946   0.09285   0.28098   1.000
    O1214   O    0.90937   0.13396   0.28390   1.000
    O1215   O    0.88647   0.14205   0.32149   1.000
    O1216   O    0.79336   0.20797   0.24927   1.000
    O1217   O    0.77143   0.21218   0.28867   1.000
    O1218   O    0.79140   0.30379   0.33926   1.000
    O1219   O    0.74604   0.25801   0.29346   1.000
    O1220   O    0.86762   0.33112   0.29016   1.000
    O1221   O    0.83264   0.27746   0.35332   1.000
    O1222   O    0.93508   0.08410   0.30855   1.000
    O1223   O    0.90414   0.15737   0.33907   1.000
    Cr1224  Cr   0.65770   0.28384   0.11423   1.000
    Cr1225  Cr   0.53034   0.35963   0.30656   1.000
    C1226   C    0.47489   0.38220   0.31227   1.000
    C1227   C    0.62501   0.25305   0.15936   1.000
    C1228   C    0.66831   0.29961   0.14404   1.000
    C1229   C    0.73261   0.27199   0.20310   1.000
    C1230   C    0.52830   0.27304   0.34166   1.000
    C1231   C    0.66808   0.33257   0.07796   1.000
    O1232   O    0.50214   0.46103   0.42559   1.000
    O1233   O    0.52525   0.36883   0.33327   1.000
    O1234   O    0.48477   0.44352   0.40801   1.000
    O1235   O    0.49673   0.38370   0.30637   1.000
    O1236   O    0.47176   0.31969   0.36082   1.000
    O1237   O    0.64681   0.25626   0.14341   1.000
    O1238   O    0.64670   0.28098   0.09285   1.000
    O1239   O    0.67277   0.28390   0.13396   1.000
    O1240   O    0.65000   0.32149   0.14205   1.000
    O1241   O    0.74940   0.24927   0.20797   1.000
    O1242   O    0.72771   0.28867   0.21218   1.000
    O1243   O    0.56556   0.33926   0.30379   1.000
    O1244   O    0.70249   0.29346   0.25801   1.000
    O1245   O    0.51111   0.29016   0.33112   1.000
    O1246   O    0.53657   0.35332   0.27746   1.000
    O1247   O    0.67227   0.30855   0.08410   1.000
    O1248   O    0.59943   0.33907   0.15737   1.000
    Cr1249  Cr   0.41880   0.47185   0.47185   1.000
    Cr1250  Cr   0.47185   0.41880   0.63750   1.000
    Cr1251  Cr   0.47185   0.63750   0.41880   1.000
    Cr1252  Cr   0.63750   0.47185   0.47185   1.000
    Cr1253  Cr   0.47185   0.41880   0.47185   1.000
    Cr1254  Cr   0.63750   0.47185   0.41880   1.000
    Cr1255  Cr   0.41880   0.47185   0.63750   1.000
    Cr1256  Cr   0.47185   0.63750   0.47185   1.000
    Cr1257  Cr   0.47185   0.47185   0.41880   1.000
    Cr1258  Cr   0.41880   0.63750   0.47185   1.000
    Cr1259  Cr   0.63750   0.41880   0.47185   1.000
    Cr1260  Cr   0.47185   0.47185   0.63750   1.000
    Cr1261  Cr   0.83120   0.77815   0.61250   1.000
    Cr1262  Cr   0.77815   0.83120   0.77815   1.000
    Cr1263  Cr   0.77815   0.61250   0.77815   1.000
    Cr1264  Cr   0.61250   0.77815   0.83120   1.000
    Cr1265  Cr   0.77815   0.83120   0.61250   1.000
    Cr1266  Cr   0.61250   0.77815   0.77815   1.000
    Cr1267  Cr   0.83120   0.77815   0.77815   1.000
    Cr1268  Cr   0.77815   0.61250   0.83120   1.000
    Cr1269  Cr   0.77815   0.77815   0.61250   1.000
    Cr1270  Cr   0.83120   0.61250   0.77815   1.000
    Cr1271  Cr   0.61250   0.83120   0.77815   1.000
    Cr1272  Cr   0.77815   0.77815   0.83120   1.000
    Cr1273  Cr   0.12500   0.34065   0.62500   1.000
    O1274   O    0.12500   0.31008   0.62500   1.000
    Cr1275  Cr   0.34065   0.12500   0.90935   1.000
    O1276   O    0.31008   0.12500   0.93992   1.000
    Cr1277  Cr   0.62500   0.90935   0.12500   1.000
    O1278   O    0.62500   0.93992   0.12500   1.000
    Cr1279  Cr   0.90935   0.62500   0.34065   1.000
    O1280   O    0.93992   0.62500   0.31008   1.000
    Cr1281  Cr   0.62500   0.12500   0.34065   1.000
    O1282   O    0.62500   0.12500   0.31008   1.000
    Cr1283  Cr   0.90935   0.34065   0.12500   1.000
    O1284   O    0.93992   0.31008   0.12500   1.000
    Cr1285  Cr   0.12500   0.62500   0.90935   1.000
    O1286   O    0.12500   0.62500   0.93992   1.000
    Cr1287  Cr   0.34065   0.90935   0.62500   1.000
    O1288   O    0.31008   0.93992   0.62500   1.000
    Cr1289  Cr   0.34065   0.62500   0.12500   1.000
    O1290   O    0.31008   0.62500   0.12500   1.000
    Cr1291  Cr   0.12500   0.90935   0.34065   1.000
    O1292   O    0.12500   0.93992   0.31008   1.000
    Cr1293  Cr   0.90935   0.12500   0.62500   1.000
    O1294   O    0.93992   0.12500   0.62500   1.000
    Cr1295  Cr   0.62500   0.34065   0.90935   1.000
    O1296   O    0.62500   0.31008   0.93992   1.000
    Cr1297  Cr   0.12500   0.90935   0.62500   1.000
    Cr1298  Cr   0.73756   0.73756   0.23592   1.000
    Cr1299  Cr   0.73756   0.73756   0.28896   1.000
    Cr1300  Cr   0.73756   0.23592   0.28896   1.000
    Cr1301  Cr   0.73756   0.28896   0.23592   1.000
    Cr1302  Cr   0.23592   0.73756   0.73756   1.000
    Cr1303  Cr   0.28896   0.73756   0.73756   1.000
    Cr1304  Cr   0.28896   0.73756   0.23592   1.000
    Cr1305  Cr   0.23592   0.73756   0.28896   1.000
    Cr1306  Cr   0.73756   0.23592   0.73756   1.000
    Cr1307  Cr   0.73756   0.28896   0.73756   1.000
    Cr1308  Cr   0.01408   0.96104   0.51244   1.000
    Cr1309  Cr   0.96104   0.01408   0.51244   1.000
    Cr1310  Cr   0.51244   0.51244   0.96104   1.000
    Cr1311  Cr   0.51244   0.51244   0.01408   1.000
    Cr1312  Cr   0.51244   0.01408   0.51244   1.000
    Cr1313  Cr   0.51244   0.96104   0.51244   1.000
    Cr1314  Cr   0.01408   0.51244   0.96104   1.000
    Cr1315  Cr   0.96104   0.51244   0.01408   1.000
    Cr1316  Cr   0.96104   0.51244   0.51244   1.000
    Cr1317  Cr   0.01408   0.51244   0.51244   1.000
    Cr1318  Cr   0.51244   0.01408   0.96104   1.000
    Cr1319  Cr   0.51244   0.96104   0.01408   1.000
    Cr1320  Cr   0.32574   0.32574   0.49285   1.000
    C1321   C    0.35723   0.35723   0.52298   1.000
    C1322   C    0.41918   0.41918   0.48908   1.000
    C1323   C    0.31762   0.31762   0.57750   1.000
    C1324   C    0.28000   0.28000   0.69049   1.000
    O1325   O    0.33063   0.33063   0.51787   1.000
    Cr1326  Cr   0.32574   0.32574   0.85566   1.000
    C1327   C    0.35723   0.35723   0.76256   1.000
    C1328   C    0.41918   0.41918   0.67257   1.000
    C1329   C    0.31762   0.31762   0.78725   1.000
    C1330   C    0.28000   0.28000   0.74951   1.000
    O1331   O    0.33063   0.33063   0.82086   1.000
    Cr1332  Cr   0.49285   0.85566   0.32574   1.000
    C1333   C    0.52298   0.76256   0.35723   1.000
    C1334   C    0.48908   0.67257   0.41918   1.000
    C1335   C    0.57750   0.78725   0.31762   1.000
    C1336   C    0.69049   0.74951   0.28000   1.000
    O1337   O    0.51787   0.82086   0.33063   1.000
    Cr1338  Cr   0.85566   0.49285   0.32574   1.000
    C1339   C    0.76256   0.52298   0.35723   1.000
    C1340   C    0.67257   0.48908   0.41918   1.000
    C1341   C    0.78725   0.57750   0.31762   1.000
    C1342   C    0.74951   0.69049   0.28000   1.000
    O1343   O    0.82086   0.51787   0.33063   1.000
    Cr1344  Cr   0.49285   0.32574   0.32574   1.000
    C1345   C    0.52298   0.35723   0.35723   1.000
    C1346   C    0.48908   0.41918   0.41918   1.000
    C1347   C    0.57750   0.31762   0.31762   1.000
    C1348   C    0.69049   0.28000   0.28000   1.000
    O1349   O    0.51787   0.33063   0.33063   1.000
    Cr1350  Cr   0.85566   0.32574   0.32574   1.000
    C1351   C    0.76256   0.35723   0.35723   1.000
    C1352   C    0.67257   0.41918   0.41918   1.000
    C1353   C    0.78725   0.31762   0.31762   1.000
    C1354   C    0.74951   0.28000   0.28000   1.000
    O1355   O    0.82086   0.33063   0.33063   1.000
    Cr1356  Cr   0.32574   0.49285   0.85566   1.000
    C1357   C    0.35723   0.52298   0.76256   1.000
    C1358   C    0.41918   0.48908   0.67257   1.000
    C1359   C    0.31762   0.57750   0.78725   1.000
    C1360   C    0.28000   0.69049   0.74951   1.000
    O1361   O    0.33063   0.51787   0.82086   1.000
    Cr1362  Cr   0.32574   0.85566   0.49285   1.000
    C1363   C    0.35723   0.76256   0.52298   1.000
    C1364   C    0.41918   0.67257   0.48908   1.000
    C1365   C    0.31762   0.78725   0.57750   1.000
    C1366   C    0.28000   0.74951   0.69049   1.000
    O1367   O    0.33063   0.82086   0.51787   1.000
    Cr1368  Cr   0.32574   0.49285   0.32574   1.000
    C1369   C    0.35723   0.52298   0.35723   1.000
    C1370   C    0.41918   0.48908   0.41918   1.000
    C1371   C    0.31762   0.57750   0.31762   1.000
    C1372   C    0.28000   0.69049   0.28000   1.000
    O1373   O    0.33063   0.51787   0.33063   1.000
    Cr1374  Cr   0.32574   0.85566   0.32574   1.000
    C1375   C    0.35723   0.76256   0.35723   1.000
    C1376   C    0.41918   0.67257   0.41918   1.000
    C1377   C    0.31762   0.78725   0.31762   1.000
    C1378   C    0.28000   0.74951   0.28000   1.000
    O1379   O    0.33063   0.82086   0.33063   1.000
    Cr1380  Cr   0.85566   0.32574   0.49285   1.000
    C1381   C    0.76256   0.35723   0.52298   1.000
    C1382   C    0.67257   0.41918   0.48908   1.000
    C1383   C    0.78725   0.31762   0.57750   1.000
    C1384   C    0.74951   0.28000   0.69049   1.000
    O1385   O    0.82086   0.33063   0.51787   1.000
    Cr1386  Cr   0.49285   0.32574   0.85566   1.000
    C1387   C    0.52298   0.35723   0.76256   1.000
    C1388   C    0.48908   0.41918   0.67257   1.000
    C1389   C    0.57750   0.31762   0.78725   1.000
    C1390   C    0.69049   0.28000   0.74951   1.000
    O1391   O    0.51787   0.33063   0.82086   1.000
    Cr1392  Cr   0.92426   0.92426   0.39434   1.000
    C1393   C    0.89277   0.89277   0.48744   1.000
    C1394   C    0.83082   0.83082   0.57743   1.000
    C1395   C    0.93238   0.93238   0.46275   1.000
    C1396   C    0.97000   0.97000   0.50049   1.000
    O1397   O    0.91937   0.91937   0.42914   1.000
    Cr1398  Cr   0.92426   0.92426   0.75715   1.000
    C1399   C    0.89277   0.89277   0.72702   1.000
    C1400   C    0.83082   0.83082   0.76092   1.000
    C1401   C    0.93238   0.93238   0.67250   1.000
    C1402   C    0.97000   0.97000   0.55951   1.000
    O1403   O    0.91937   0.91937   0.73213   1.000
    Cr1404  Cr   0.75715   0.39434   0.92426   1.000
    C1405   C    0.72702   0.48744   0.89277   1.000
    C1406   C    0.76092   0.57743   0.83082   1.000
    C1407   C    0.67250   0.46275   0.93238   1.000
    C1408   C    0.55951   0.50049   0.97000   1.000
    O1409   O    0.73213   0.42914   0.91937   1.000
    Cr1410  Cr   0.39434   0.75715   0.92426   1.000
    C1411   C    0.48744   0.72702   0.89277   1.000
    C1412   C    0.57743   0.76092   0.83082   1.000
    C1413   C    0.46275   0.67250   0.93238   1.000
    C1414   C    0.50049   0.55951   0.97000   1.000
    O1415   O    0.42914   0.73213   0.91937   1.000
    Cr1416  Cr   0.75715   0.92426   0.39434   1.000
    C1417   C    0.72702   0.89277   0.48744   1.000
    C1418   C    0.76092   0.83082   0.57743   1.000
    C1419   C    0.67250   0.93238   0.46275   1.000
    C1420   C    0.55951   0.97000   0.50049   1.000
    O1421   O    0.73213   0.91937   0.42914   1.000
    Cr1422  Cr   0.39434   0.92426   0.75715   1.000
    C1423   C    0.48744   0.89277   0.72702   1.000
    C1424   C    0.57743   0.83082   0.76092   1.000
    C1425   C    0.46275   0.93238   0.67250   1.000
    C1426   C    0.50049   0.97000   0.55951   1.000
    O1427   O    0.42914   0.91937   0.73213   1.000
    Cr1428  Cr   0.92426   0.75715   0.92426   1.000
    C1429   C    0.89277   0.72702   0.89277   1.000
    C1430   C    0.83082   0.76092   0.83082   1.000
    C1431   C    0.93238   0.67250   0.93238   1.000
    C1432   C    0.97000   0.55951   0.97000   1.000
    O1433   O    0.91937   0.73213   0.91937   1.000
    Cr1434  Cr   0.92426   0.39434   0.92426   1.000
    C1435   C    0.89277   0.48744   0.89277   1.000
    C1436   C    0.83082   0.57743   0.83082   1.000
    C1437   C    0.93238   0.46275   0.93238   1.000
    C1438   C    0.97000   0.50049   0.97000   1.000
    O1439   O    0.91937   0.42914   0.91937   1.000
    Cr1440  Cr   0.92426   0.75715   0.39434   1.000
    C1441   C    0.89277   0.72702   0.48744   1.000
    C1442   C    0.83082   0.76092   0.57743   1.000
    C1443   C    0.93238   0.67250   0.46275   1.000
    C1444   C    0.97000   0.55951   0.50049   1.000
    O1445   O    0.91937   0.73213   0.42914   1.000
    Cr1446  Cr   0.92426   0.39434   0.75715   1.000
    C1447   C    0.89277   0.48744   0.72702   1.000
    C1448   C    0.83082   0.57743   0.76092   1.000
    C1449   C    0.93238   0.46275   0.67250   1.000
    C1450   C    0.97000   0.50049   0.55951   1.000
    O1451   O    0.91937   0.42914   0.73213   1.000
    Cr1452  Cr   0.39434   0.92426   0.92426   1.000
    C1453   C    0.48744   0.89277   0.89277   1.000
    C1454   C    0.57743   0.83082   0.83082   1.000
    C1455   C    0.46275   0.93238   0.93238   1.000
    C1456   C    0.50049   0.97000   0.97000   1.000
    O1457   O    0.42914   0.91937   0.91937   1.000
    Cr1458  Cr   0.75715   0.92426   0.92426   1.000
    C1459   C    0.72702   0.89277   0.89277   1.000
    C1460   C    0.76092   0.83082   0.83082   1.000
    C1461   C    0.67250   0.93238   0.93238   1.000
    C1462   C    0.55951   0.97000   0.97000   1.000
    O1463   O    0.73213   0.91937   0.91937   1.000
    C1464   C    0.44280   0.44280   0.51229   1.000
    C1465   C    0.44280   0.44280   0.60211   1.000
    C1466   C    0.51229   0.60211   0.44280   1.000
    C1467   C    0.60211   0.51229   0.44280   1.000
    C1468   C    0.51229   0.44280   0.44280   1.000
    C1469   C    0.60211   0.44280   0.44280   1.000
    C1470   C    0.44280   0.51229   0.60211   1.000
    C1471   C    0.44280   0.60211   0.51229   1.000
    C1472   C    0.44280   0.51229   0.44280   1.000
    C1473   C    0.44280   0.60211   0.44280   1.000
    C1474   C    0.60211   0.44280   0.51229   1.000
    C1475   C    0.51229   0.44280   0.60211   1.000
    C1476   C    0.80720   0.80720   0.64789   1.000
    C1477   C    0.80720   0.80720   0.73771   1.000
    C1478   C    0.73771   0.64789   0.80720   1.000
    C1479   C    0.64789   0.73771   0.80720   1.000
    C1480   C    0.73771   0.80720   0.64789   1.000
    C1481   C    0.64789   0.80720   0.73771   1.000
    C1482   C    0.80720   0.73771   0.80720   1.000
    C1483   C    0.80720   0.64789   0.80720   1.000
    C1484   C    0.80720   0.73771   0.64789   1.000
    C1485   C    0.80720   0.64789   0.73771   1.000
    C1486   C    0.64789   0.80720   0.80720   1.000
    C1487   C    0.73771   0.80720   0.80720   1.000
    O1488   O    0.45414   0.45414   0.45414   1.000
    O1489   O    0.45414   0.45414   0.63759   1.000
    O1490   O    0.45414   0.63759   0.45414   1.000
    O1491   O    0.63759   0.45414   0.45414   1.000
    O1492   O    0.79586   0.79586   0.61241   1.000
    O1493   O    0.79586   0.79586   0.79586   1.000
    O1494   O    0.79586   0.61241   0.79586   1.000
    O1495   O    0.61241   0.79586   0.79586   1.000
loop_
    _geom_bond_atom_site_label_1
    _geom_bond_atom_site_label_2
    _geom_bond_distance
    _geom_bond_site_symmetry_2
    _ccdc_geom_bond_type
    O756   Cr677     1.89821      .   S
    O756   C744      1.27469  1_554   S
    O891   Cr681     1.89821      .   S
    O891   C879      1.27469  1_554   S
    O600   Cr685     1.89821      .   S
    O600   C588      1.27469  1_554   S
    O781   Cr685     1.89821      .   S
    O781   C769      1.27469  1_554   S
    O385   Cr677     1.89821      .   S
    O385   C373      1.27469  1_554   S
    O500   Cr681     1.89821      .   S
    O500   C488      1.27469  1_554   S
    Cr1319 O807      1.88921      .   S
    Cr1319 O626      1.88967      .   S
    Cr1319 O809      1.89044  1_554   S
    Cr1319 O628      1.89044  1_554   S
    Cr1319 O686      1.92625  1_554   S
    Cr1315 O867      1.88967      .   S
    Cr1315 O526      1.88921      .   S
    Cr1315 O528      1.89044  1_554   S
    Cr1315 O869      1.89044  1_554   S
    Cr1315 O682      1.92625  1_554   S
    Cr1311 O411      1.88931      .   S
    Cr1311 O732      1.88931      .   S
    Cr1311 O734      1.89044  1_554   S
    Cr1311 O413      1.89044  1_554   S
    Cr1311 O678      1.92625  1_554   S
    Cr677  O731      1.89821      .   S
    Cr677  O410      1.89821      .   S
    Cr681  O525      1.89821      .   S
    Cr681  O866      1.89821      .   S
    Cr685  O625      1.89821      .   S
    Cr685  O806      1.89821      .   S
    O411   C398      1.27285      .   S
    O867   C854      1.27227      .   S
    O732   C719      1.27285      .   S
    O807   C794      1.27252      .   S
    O626   C613      1.27227      .   S
    O526   C513      1.27252      .   S
    O731   C719      1.27469      .   S
    O625   C613      1.27469  1_545   S
    O525   C513      1.27469  1_455   S
    O410   C398      1.27469      .   S
    O866   C854      1.27469  1_455   S
    O806   C794      1.27469  1_545   S
    C58    O74       1.27271      .   S
    C58    O632      1.26278      .   S
    C1231  O1247     1.27213      .   S
    C1231  O738      1.26278      .   S
    C1031  O1047     1.27271      .   S
    C1031  O873      1.26278      .   S
    C133   O149      1.27227      .   S
    C133   O532      1.26278      .   S
    C210   O226      1.27213      .   S
    C210   O417      1.26278      .   S
    C1131  O1147     1.27227      .   S
    C1131  O813      1.26278      .   S
    O1147  Cr1124    1.89273      .   S
    O1247  Cr1224    1.89273      .   S
    O1047  Cr1024    1.89273      .   S
    O226   Cr203     1.89273      .   S
    O149   Cr126     1.89273      .   S
    O74    Cr51      1.89273      .   S
    C792   O1138     1.27552      .   S
    C792   O802      1.27399      .   S
    C396   O217      1.27492      .   S
    C396   O406      1.27399      .   S
    C611   O65       1.27509      .   S
    C611   O621      1.27399      .   S
    C511   O140      1.27552      .   S
    C511   O521      1.27399      .   S
    C717   O1238     1.27492      .   S
    C717   O727      1.27399      .   S
    C852   O1038     1.27509      .   S
    C852   O862      1.27399      .   S
    O417   Cr1289    1.84888      .   S
    O738   Cr643     1.84888      .   S
    O813   Cr649     1.84913      .   S
    O873   Cr655     1.84892      .   S
    O632   Cr1277    1.84892      .   S
    O532   Cr1283    1.84913      .   S
    O1038  Cr1024    1.89948      .   S
    O217   Cr203     1.89988      .   S
    O65    Cr51      1.89948      .   S
    O1238  Cr1224    1.89988      .   S
    O1138  Cr1124    1.89940      .   S
    O140   Cr126     1.89940      .   S
    C793   O805      1.27302      .   S
    C793   O804      1.27495      .   S
    C612   O624      1.27276      .   S
    C612   O623      1.27495      .   S
    C718   O730      1.27239      .   S
    C718   O729      1.27495      .   S
    C512   O524      1.27302      .   S
    C512   O523      1.27495      .   S
    C397   O409      1.27239      .   S
    C397   O408      1.27495      .   S
    C853   O865      1.27276      .   S
    C853   O864      1.27495      .   S
    O802   Cr789     1.89409      .   S
    O521   Cr508     1.89409      .   S
    O406   Cr393     1.89409      .   S
    O727   Cr714     1.89409      .   S
    O862   Cr849     1.89409      .   S
    O621   Cr608     1.89409      .   S
    O805   Cr649     1.88823      .   S
    O730   Cr643     1.88869      .   S
    O524   Cr1283    1.88823      .   S
    O624   Cr1277    1.88873      .   S
    O865   Cr655     1.88873      .   S
    O409   Cr1289    1.88869      .   S
    Cr126  O141      1.90167      .   S
    Cr126  O139      1.89409      .   S
    Cr1124 O1139     1.90167      .   S
    Cr1124 O1137     1.89409      .   S
    Cr203  O218      1.90167      .   S
    Cr203  O216      1.89409      .   S
    Cr51   O66       1.90167      .   S
    Cr51   O64       1.89409      .   S
    Cr1024 O1039     1.90167      .   S
    Cr1024 O1037     1.89409      .   S
    Cr1224 O644      1.93298      .   S
    Cr1224 O1239     1.90167      .   S
    Cr1224 O1237     1.89409      .   S
    O408   Cr393     1.90167      .   S
    O864   Cr849     1.90167      .   S
    O623   Cr608     1.90167      .   S
    O804   Cr789     1.90167      .   S
    O523   Cr508     1.90167      .   S
    O729   Cr714     1.90167      .   S
    Cr649  O650      1.92102      .   S
    Cr649  O1140     1.88823      .   S
    Cr649  O1148     1.84913      .   S
    Cr1277 O1278     1.92102      .   S
    Cr1277 O67       1.88869      .   S
    Cr1277 O75       1.84888      .   S
    O1278  Cr608     1.93298      .   S
    Cr1283 O1284     1.92102      .   S
    Cr1283 O142      1.88823      .   S
    Cr1283 O150      1.84913      .   S
    O650   Cr789     1.93298      .   S
    O644   Cr643     1.92102      .   S
    Cr643  O1240     1.88873      .   S
    Cr643  O1248     1.84892      .   S
    Cr655  O656      1.92102      .   S
    Cr655  O1040     1.88869      .   S
    Cr655  O1048     1.84888      .   S
    O656   Cr849     1.93298      .   S
    O1290  Cr1289    1.92102      .   S
    O1290  Cr393     1.93298      .   S
    Cr1289 O219      1.88873      .   S
    Cr1289 O227      1.84892      .   S
    O1284  Cr508     1.93298      .   S
    O66    C55       1.27495      .   S
    O1239  C1228     1.27495      .   S
    O1139  C1128     1.27495      .   S
    O141   C130      1.27495      .   S
    O218   C207      1.27495      .   S
    O1039  C1028     1.27495      .   S
    Cr849  O863      1.89988      .   S
    Cr849  O872      1.89273      .   S
    Cr508  O522      1.89940      .   S
    Cr508  O531      1.89273      .   S
    Cr789  O803      1.89940      .   S
    Cr789  O812      1.89273      .   S
    Cr608  O622      1.89988      .   S
    Cr608  O631      1.89273      .   S
    Cr714  O728      1.89948      .   S
    Cr714  O737      1.89273      .   S
    Cr393  O407      1.89948      .   S
    Cr393  O416      1.89273      .   S
    O67    C55       1.27239      .   S
    O1240  C1228     1.27276      .   S
    O142   C130      1.27302      .   S
    O219   C207      1.27276      .   S
    O1040  C1028     1.27239      .   S
    O1140  C1128     1.27302      .   S
    O1137  C1127     1.27399      .   S
    O64    C54       1.27399      .   S
    O216   C206      1.27399      .   S
    O1037  C1027     1.27399      .   S
    O139   C129      1.27399      .   S
    O1237  C1227     1.27399      .   S
    O803   C1127     1.27552      .   S
    O728   C1227     1.27509      .   S
    O863   C1027     1.27492      .   S
    O522   C129      1.27552      .   S
    O622   C54       1.27492      .   S
    O407   C206      1.27509      .   S
    O1048  C856      1.26278      .   S
    O227   C400      1.26278      .   S
    O1148  C796      1.26278      .   S
    O150   C515      1.26278      .   S
    O75    C615      1.26278      .   S
    O1248  C721      1.26278      .   S
    O872   C856      1.27213      .   S
    O531   C515      1.27227      .   S
    O631   C615      1.27213      .   S
    O737   C721      1.27271      .   S
    O416   C400      1.27271      .   S
    O812   C796      1.27227      .   S
    C131   O143      1.27469      .   S
    C131   O144      1.27252      .   S
    C56    O68       1.27469      .   S
    C56    O69       1.27285      .   S
    C1229  O1241     1.27469      .   S
    C1229  O1242     1.27227      .   S
    C208   O220      1.27469      .   S
    C208   O221      1.27227      .   S
    C1129  O1141     1.27469      .   S
    C1129  O1142     1.27252      .   S
    C1029  O1041     1.27469      .   S
    C1029  O1042     1.27285      .   S
    O1141  Cr671     1.89821      .   S
    O220   Cr671     1.89821      .   S
    O1241  Cr667     1.89821      .   S
    O1041  Cr665     1.89821      .   S
    O143   Cr667     1.89821      .   S
    O68    Cr665     1.89821      .   S
    O1142  Cr1304    1.88921      .   S
    O221   Cr1304    1.88967      .   S
    O69    Cr1298    1.88931      .   S
    O1042  Cr1298    1.88931      .   S
    O1242  Cr1301    1.88967      .   S
    O144   Cr1301    1.88921      .   S
    Cr671  O245      1.89821      .   S
    Cr671  O1116     1.89821      .   S
    Cr665  O93       1.89821      .   S
    Cr665  O1016     1.89821      .   S
    Cr667  O1216     1.89821      .   S
    Cr667  O118      1.89821      .   S
    Cr1304 O672      1.92625      .   S
    Cr1304 O1144     1.89044      .   S
    Cr1304 O223      1.89044      .   S
    Cr1298 O666      1.92625      .   S
    Cr1298 O71       1.89044      .   S
    Cr1298 O1044     1.89044      .   S
    Cr1301 O668      1.92625      .   S
    Cr1301 O1244     1.89044      .   S
    Cr1301 O146      1.89044      .   S
    O93    C81       1.27469      .   S
    O1016  C1004     1.27469      .   S
    O1216  C1204     1.27469      .   S
    O118   C106      1.27469      .   S
    O245   C233      1.27469      .   S
    O1116  C1104     1.27469      .   S
    O668   Cr1300    1.92625      .   S
    O666   Cr1299    1.92625      .   S
    O672   Cr1305    1.92625      .   S
    C1102  O1112     1.27399      .   S
    C1102  O828      1.27509      .   S
    C104   O114      1.27399      .   S
    C104   O447      1.27509      .   S
    C1202  O1212     1.27399      .   S
    C1202  O703      1.27552      .   S
    C79    O89       1.27399      .   S
    C79    O547      1.27522      .   S
    C1002  O1012     1.27399      .   S
    C1002  O938      1.27522      .   S
    C231   O241      1.27399      .   S
    C231   O332      1.27552      .   S
    O114   Cr101     1.89409      .   S
    O241   Cr228     1.89409      .   S
    O1112  Cr1099    1.89409      .   S
    O1012  Cr999     1.89409      .   S
    O89    Cr76      1.89409      .   S
    O1212  Cr1199    1.89409      .   S
    O1144  C1378     1.27301      .   S
    O71    C1336     1.27301      .   S
    O1044  C1342     1.27301      .   S
    O1244  C1348     1.27301      .   S
    O146   C1354     1.27301      .   S
    O223   C1372     1.27301      .   S
    O547   Cr533     1.89929      .   S
    O447   Cr433     1.89948      .   S
    O828   Cr814     1.89948      .   S
    O332   Cr303     1.89940      .   S
    O703   Cr689     1.89940      .   S
    O938   Cr924     1.89929      .   S
    C1004  O1017     1.27273      .   S
    C1204  O1217     1.27252      .   S
    C1104  O1117     1.27227      .   S
    C106   O119      1.27227      .   S
    C233   O246      1.27252      .   S
    C81    O94       1.27273      .   S
    C1205  O148      1.27044      .   S
    C1205  O1220     1.26682      .   S
    C107   O1246     1.26993      .   S
    C107   O122      1.26639      .   S
    C234   O1146     1.27044      .   S
    C234   O249      1.26682      .   S
    C82    O1046     1.27049      .   S
    C82    O97       1.26672      .   S
    C1005  O73       1.27049      .   S
    C1005  O1020     1.26672      .   S
    C1105  O225      1.26993      .   S
    C1105  O1120     1.26639      .   S
    O1046  Cr1025    1.87232      .   S
    O1146  Cr1125    1.87258      .   S
    O225   Cr204     1.87307      .   S
    O1246  Cr1225    1.87307      .   S
    O148   Cr127     1.87258      .   S
    O73    Cr52      1.87232      .   S
    C1348  O121      1.27301      .   S
    C1372  O1119     1.27301      .   S
    C1354  O1219     1.27301      .   S
    C1378  O248      1.27301      .   S
    C1336  O1019     1.27301      .   S
    C1342  O96       1.27301      .   S
    O1013  Cr999     1.89929      .   S
    O1013  C927      1.27522      .   S
    O115   Cr101     1.89988      .   S
    O115   C436      1.27492      .   S
    O242   Cr228     1.89940      .   S
    O242   C306      1.27552      .   S
    O90    Cr76      1.89929      .   S
    O90    C536      1.27522      .   S
    O1113  Cr1099    1.89988      .   S
    O1113  C817      1.27492      .   S
    O1213  Cr1199    1.89940      .   S
    O1213  C692      1.27552      .   S
    Cr999  O1014     1.90167      .   S
    Cr999  O1022     1.89273      .   S
    Cr228  O243      1.90167      .   S
    Cr228  O251      1.89273      .   S
    Cr1199 O1214     1.90167      .   S
    Cr1199 O1222     1.89273      .   S
    Cr76   O91       1.90167      .   S
    Cr76   O99       1.89273      .   S
    Cr76   O1280     1.93298      .   S
    Cr1099 O1114     1.90167      .   S
    Cr1099 O1122     1.89273      .   S
    Cr1099 O652      1.93298      .   S
    Cr101  O116      1.90167      .   S
    Cr101  O124      1.89273      .   S
    Cr101  O1282     1.93298      .   S
    O116   C105      1.27495      .   S
    O91    C80       1.27495      .   S
    O243   C232      1.27495      .   S
    O1014  C1003     1.27495      .   S
    O1214  C1203     1.27495      .   S
    O1114  C1103     1.27495      .   S
    C927   O937      1.27399      .   S
    C692   O702      1.27399      .   S
    C306   O331      1.27399      .   S
    C436   O446      1.27399      .   S
    C817   O827      1.27399      .   S
    C536   O546      1.27399      .   S
    O94    Cr1299    1.88907      .   S
    O246   Cr1305    1.88921      .   S
    O1017  Cr1299    1.88907      .   S
    O1117  Cr1305    1.88967      .   S
    O119   Cr1300    1.88967      .   S
    O1217  Cr1300    1.88921      .   S
    Cr1305 O248      1.89044      .   S
    Cr1305 O1119     1.89044      .   S
    Cr1300 O1219     1.89044      .   S
    Cr1300 O121      1.89044      .   S
    Cr1299 O96       1.89044      .   S
    Cr1299 O1019     1.89044      .   S
    O122   Cr1344    1.86988      .   S
    O1220  Cr1350    1.86975      .   S
    O97    Cr1338    1.87002      .   S
    O1120  Cr1368    1.86988      .   S
    O249   Cr1374    1.86975      .   S
    O1020  Cr1332    1.87002      .   S
    O331   Cr303     1.89409      .   S
    O702   Cr689     1.89409      .   S
    O937   Cr924     1.89409      .   S
    O827   Cr814     1.89409      .   S
    O446   Cr433     1.89409      .   S
    O546   Cr533     1.89409      .   S
    C80    O92       1.27276      .   S
    C1003  O1015     1.27276      .   S
    C232   O244      1.27302      .   S
    C1103  O1115     1.27276      .   S
    C105   O117      1.27276      .   S
    C1203  O1215     1.27302      .   S
    O1043  Cr1025    1.88990      .   S
    O1043  C1341     1.27123      .   S
    O145   Cr127     1.88990      .   S
    O145   C1353     1.27227      .   S
    O1143  Cr1125    1.88990      .   S
    O1143  C1377     1.27227      .   S
    O1243  Cr1225    1.88990      .   S
    O1243  C1347     1.27177      .   S
    O70    Cr52      1.88990      .   S
    O70    C1335     1.27123      .   S
    O222   Cr204     1.88990      .   S
    O222   C1371     1.27177      .   S
    Cr533  O556      1.89273      .   S
    Cr533  O548      1.90167      .   S
    Cr689  O642      1.93298      .   S
    Cr689  O712      1.89273      .   S
    Cr689  O704      1.90167      .   S
    Cr433  O456      1.89273      .   S
    Cr433  O448      1.90167      .   S
    Cr924  O662      1.93298      .   S
    Cr924  O947      1.89273      .   S
    Cr924  O939      1.90167      .   S
    Cr814  O837      1.89273      .   S
    Cr814  O829      1.90167      .   S
    Cr303  O1292     1.93298      .   S
    Cr303  O341      1.89273      .   S
    Cr303  O333      1.90167      .   S
    O1035  Cr1025    1.88729      .   S
    O1035  C1026     1.27072      .   S
    O137   Cr127     1.88668      .   S
    O137   C128      1.27040      .   S
    O1135  Cr1125    1.88668      .   S
    O1135  C1126     1.27040      .   S
    O62    Cr52      1.88729      .   S
    O62    C53       1.27072      .   S
    O1235  Cr1225    1.88714      .   S
    O1235  C1226     1.27101      .   S
    O214   Cr204     1.88714      .   S
    O214   C205      1.27101      .   S
    Cr1225 O1349     1.92593      .   S
    Cr1225 O1233     1.87145      .   S
    Cr204  O1373     1.92593      .   S
    Cr204  O212      1.87145      .   S
    Cr52   O1337     1.92498      .   S
    Cr52   O60       1.87187      .   S
    Cr1125 O1379     1.92532      .   S
    Cr1125 O1133     1.87172      .   S
    Cr127  O1355     1.92532      .   S
    Cr127  O135      1.87172      .   S
    Cr1025 O1343     1.92498      .   S
    Cr1025 O1033     1.87187      .   S
    O1122  C1106     1.27213      .   S
    O99    C83       1.27224      .   S
    O1022  C1006     1.27224      .   S
    O251   C235      1.27227      .   S
    O124   C108      1.27213      .   S
    O1222  C1206     1.27227      .   S
    O1282  Cr1281    1.92102      .   S
    O1292  Cr1291    1.92102      .   S
    O652   Cr651     1.92102      .   S
    O662   Cr661     1.92102      .   S
    O642   Cr641     1.92102      .   S
    O1280  Cr1279    1.92102      .   S
    C1026  O88       1.26837      .   S
    C128   O1211     1.26808      .   S
    C1126  O240      1.26808      .   S
    C53    O1011     1.26837      .   S
    C205   O1111     1.26777      .   S
    C1226  O113      1.26777      .   S
    O556   C540      1.27224      .   S
    O947   C931      1.27224      .   S
    O837   C821      1.27271      .   S
    O712   C696      1.27227      .   S
    O341   C325      1.27227      .   S
    O456   C440      1.27271      .   S
    C1353  O1218     1.27227      .   S
    C1335  O1018     1.27233      .   S
    C1341  O95       1.27233      .   S
    C1377  O247      1.27227      .   S
    C1371  O1118     1.27177      .   S
    C1347  O120      1.27177      .   S
    O240   Cr1374    1.87222      .   S
    O113   Cr1344    1.87208      .   S
    O1211  Cr1350    1.87222      .   S
    O88    Cr1338    1.87163      .   S
    O1011  Cr1332    1.87163      .   S
    O1111  Cr1368    1.87208      .   S
    O244   Cr1291    1.88823      .   S
    O117   Cr1281    1.88873      .   S
    O92    Cr1279    1.88832      .   S
    O1015  Cr661     1.88832      .   S
    O1215  Cr641     1.88823      .   S
    O1115  Cr651     1.88873      .   S
    Cr1344 O1245     1.86988      .   S
    Cr1344 O1236     1.87208      .   S
    Cr1374 O1145     1.86975      .   S
    Cr1374 O1136     1.87222      .   S
    Cr1350 O147      1.86975      .   S
    Cr1350 O138      1.87222      .   S
    Cr1338 O1045     1.87089      .   S
    Cr1338 O1036     1.87206      .   S
    Cr1332 O72       1.87089      .   S
    Cr1332 O63       1.87206      .   S
    Cr1368 O224      1.86988      .   S
    Cr1368 O215      1.87208      .   S
    C540   O100      1.26278      .   S
    C696   O1223     1.26278      .   S
    C821   O1123     1.26278      .   S
    C440   O125      1.26278      .   S
    C931   O1023     1.26278      .   S
    C325   O252      1.26278      .   S
    O1355  Cr1200    1.92532      .   S
    O1379  Cr229     1.92532      .   S
    O1337  Cr1000    1.92607      .   S
    O1373  Cr1100    1.92593      .   S
    O1343  Cr77      1.92607      .   S
    O1349  Cr102     1.92593      .   S
    O1045  C1030     1.26629      .   S
    O147   C132      1.26682      .   S
    O224   C209      1.26639      .   S
    O1145  C1130     1.26682      .   S
    O72    C57       1.26629      .   S
    O1245  C1230     1.26639      .   S
    C1006  O948      1.26278      .   S
    C1206  O713      1.26278      .   S
    C1106  O838      1.26278      .   S
    C83    O557      1.26278      .   S
    C108   O457      1.26278      .   S
    C235   O342      1.26278      .   S
    O1133  C1375     1.26899      .   S
    O135   C1351     1.26899      .   S
    O1233  C1345     1.26899      .   S
    O60    C1333     1.26899      .   S
    O212   C1369     1.26899      .   S
    O1033  C1339     1.26899      .   S
    O1123  Cr651     1.84892      .   S
    O1223  Cr641     1.84913      .   S
    O125   Cr1281    1.84892      .   S
    O252   Cr1291    1.84913      .   S
    O1023  Cr661     1.84852      .   S
    O100   Cr1279    1.84852      .   S
    O1218  Cr1200    1.88990      .   S
    O1118  Cr1100    1.88990      .   S
    O95    Cr77      1.88990      .   S
    O1018  Cr1000    1.88990      .   S
    O247   Cr229     1.88990      .   S
    O120   Cr102     1.88990      .   S
    O548   C537      1.27495      .   S
    O704   C693      1.27495      .   S
    O939   C928      1.27495      .   S
    O829   C818      1.27495      .   S
    O448   C437      1.27495      .   S
    O333   C154      1.27495      .   S
    Cr641  O713      1.84913      .   S
    Cr641  O705      1.88823      .   S
    Cr651  O838      1.84888      .   S
    Cr651  O830      1.88869      .   S
    Cr661  O948      1.84852      .   S
    Cr661  O940      1.88832      .   S
    Cr1279 O557      1.84852      .   S
    Cr1279 O549      1.88832      .   S
    Cr1281 O457      1.84888      .   S
    Cr1281 O449      1.88869      .   S
    Cr1291 O342      1.84913      .   S
    Cr1291 O334      1.88823      .   S
    C209   O1121     1.26993      .   S
    C1030  O98       1.27038      .   S
    C57    O1021     1.27038      .   S
    C1230  O123      1.26993      .   S
    C132   O1221     1.27044      .   S
    C1130  O250      1.27044      .   S
    O1021  Cr1000    1.87184      .   S
    O250   Cr229     1.87258      .   S
    O1121  Cr1100    1.87307      .   S
    O123   Cr102     1.87307      .   S
    O98    Cr77      1.87184      .   S
    O1221  Cr1200    1.87258      .   S
    C1375  O237      1.26899      .   S
    C1351  O1208     1.26899      .   S
    C1345  O110      1.26899      .   S
    C1333  O1008     1.26899      .   S
    C1369  O1108     1.26899      .   S
    C1339  O85       1.26899      .   S
    Cr77   O85       1.87206      .   S
    Cr77   O87       1.88703      .   S
    Cr102  O110      1.87145      .   S
    Cr102  O112      1.88714      .   S
    Cr229  O237      1.87172      .   S
    Cr229  O239      1.88668      .   S
    Cr1200 O1208     1.87172      .   S
    Cr1200 O1210     1.88668      .   S
    Cr1000 O1008     1.87206      .   S
    Cr1000 O1010     1.88703      .   S
    Cr1100 O1108     1.87145      .   S
    Cr1100 O1110     1.88714      .   S
    O215   C1101     1.26777      .   S
    O1136  C230      1.26808      .   S
    O138   C1201     1.26808      .   S
    O1036  C37       1.26792      .   S
    O63    C1001     1.26792      .   S
    O1236  C103      1.26777      .   S
    C154   O334      1.27302      .   S
    C537   O549      1.27276      .   S
    C693   O705      1.27302      .   S
    C928   O940      1.27276      .   S
    C818   O830      1.27239      .   S
    C437   O449      1.27239      .   S
    C230   O239      1.27040      .   S
    C37    O87       1.27083      .   S
    C103   O112      1.27101      .   S
    C1001  O1010     1.27083      .   S
    C1201  O1210     1.27040      .   S
    C1101  O1110     1.27101      .   S
    O710   C695      1.26682      .   S
    O710   Cr1392    1.86975      .   S
    O339   C156      1.26682      .   S
    O339   Cr1392    1.86975      .   S
    O454   C439      1.26629      .   S
    O454   Cr1416    1.87089      .   S
    O945   C930      1.26672      .   S
    O945   Cr1416    1.87002      .   S
    O554   C539      1.26672      .   S
    O554   Cr1440    1.87002      .   S
    O835   C820      1.26629      .   S
    O835   Cr1440    1.87089      .   S
    C930   O455      1.27049      .   S
    C156   O711      1.27044      .   S
    C539   O836      1.27049      .   S
    C695   O340      1.27044      .   S
    C820   O555      1.27038      .   S
    C439   O946      1.27038      .   S
    Cr1392 O701      1.87222      .   S
    Cr1392 O330      1.87222      .   S
    Cr1440 O545      1.87163      .   S
    Cr1440 O826      1.87206      .   S
    Cr1416 O936      1.87163      .   S
    Cr1416 O445      1.87206      .   S
    O545   C816      1.26837      .   S
    O701   C305      1.26808      .   S
    O936   C435      1.26837      .   S
    O330   C691      1.26808      .   S
    O445   C926      1.26792      .   S
    O826   C535      1.26792      .   S
    O1134  Cr1251    1.87068      .   S
    O1134  C1376     1.26804      .   S
    O1034  Cr1254    1.87068      .   S
    O1034  C1340     1.26848      .   S
    O61    Cr1251    1.87068      .   S
    O61    C1334     1.26848      .   S
    O213   Cr1257    1.87068      .   S
    O213   C1370     1.26797      .   S
    O1234  Cr1257    1.87068      .   S
    O1234  C1346     1.26797      .   S
    O136   Cr1254    1.87068      .   S
    O136   C1352     1.26804      .   S
    O555   Cr534     1.87184      .   S
    O340   Cr304     1.87258      .   S
    O946   Cr925     1.87184      .   S
    O711   Cr690     1.87258      .   S
    O455   Cr434     1.87232      .   S
    O836   Cr815     1.87232      .   S
    Cr1254 O1032     1.86955      .   S
    Cr1254 O134      1.86955      .   S
    Cr1251 O59       1.86955      .   S
    Cr1251 O1132     1.86955      .   S
    Cr1251 O1490     1.92487      .   S
    Cr1257 O211      1.86955      .   S
    Cr1257 O1232     1.86955      .   S
    Cr1257 O1488     1.92469      .   S
    C1370  O1109     1.26797      .   S
    C1376  O238      1.26804      .   S
    C1352  O1209     1.26804      .   S
    C1346  O111      1.26797      .   S
    C1340  O86       1.26793      .   S
    C1334  O1009     1.26793      .   S
    C926   O935      1.27083      .   S
    C305   O329      1.27040      .   S
    C816   O825      1.27072      .   S
    C535   O544      1.27083      .   S
    C691   O700      1.27040      .   S
    C435   O444      1.27072      .   S
    O211   C1472     1.26845      .   S
    O1032  C1467     1.26845      .   S
    O59    C1466     1.26845      .   S
    O134   C1469     1.26845      .   S
    O1132  C1473     1.26845      .   S
    O1232  C1468     1.26845      .   S
    O1445  Cr534     1.92607      .   S
    O1445  Cr815     1.92498      .   S
    O1397  Cr690     1.92532      .   S
    O1397  Cr304     1.92532      .   S
    O1421  Cr925     1.92607      .   S
    O1421  Cr434     1.92498      .   S
    O329   Cr304     1.88668      .   S
    O935   Cr925     1.88703      .   S
    O700   Cr690     1.88668      .   S
    O825   Cr815     1.88729      .   S
    O444   Cr434     1.88729      .   S
    O544   Cr534     1.88703      .   S
    C1467  O84       1.26845      .   S
    C1468  O109      1.26845      .   S
    C1473  O236      1.26845      .   S
    C1472  O1107     1.26845      .   S
    C1469  O1207     1.26845      .   S
    C1466  O1007     1.26845      .   S
    O1209  Cr1259    1.87068      .   S
    O1109  Cr1249    1.87068      .   S
    O238   Cr1258    1.87068      .   S
    O86    Cr1252    1.87068      .   S
    O1009  Cr1256    1.87068      .   S
    O111   Cr1253    1.87068      .   S
    Cr690  O708      1.88990      .   S
    Cr690  O698      1.87172      .   S
    Cr925  O943      1.88990      .   S
    Cr925  O933      1.87206      .   S
    Cr534  O552      1.88990      .   S
    Cr534  O542      1.87206      .   S
    Cr304  O337      1.88990      .   S
    Cr304  O327      1.87172      .   S
    Cr434  O452      1.88990      .   S
    Cr434  O442      1.87187      .   S
    Cr815  O833      1.88990      .   S
    Cr815  O823      1.87187      .   S
    O1491  Cr1252    1.92433      .   S
    O1491  Cr1259    1.92487      .   S
    O1490  Cr1256    1.92433      .   S
    O1488  Cr1253    1.92469      .   S
    O706   C694      1.27469  1_455   S
    O706   Cr675     1.89821      .   S
    O450   C438      1.27469      .   S
    O450   Cr679     1.89821      .   S
    O550   C538      1.27469  1_455   S
    O550   Cr683     1.89821      .   S
    O941   C929      1.27469  1_545   S
    O941   Cr679     1.89821      .   S
    O831   C819      1.27469      .   S
    O831   Cr683     1.89821      .   S
    O335   C155      1.27469  1_545   S
    O335   Cr675     1.89821      .   S
    C155   O336      1.27252      .   S
    C538   O551      1.27273      .   S
    C819   O832      1.27285      .   S
    C929   O942      1.27273      .   S
    C438   O451      1.27285      .   S
    C694   O707      1.27252      .   S
    O708   C1395     1.27227      .   S
    O833   C1443     1.27123      .   S
    O452   C1419     1.27123      .   S
    O337   C1395     1.27227      .   S
    O552   C1443     1.27233      .   S
    O943   C1419     1.27233      .   S
    O1007  Cr1256    1.86955      .   S
    O236   Cr1258    1.86955      .   S
    O109   Cr1253    1.86955      .   S
    O84    Cr1252    1.86955      .   S
    O1207  Cr1259    1.86955      .   S
    O1107  Cr1249    1.86955      .   S
    O1086  C255      1.26837      .   S
    O1086  Cr1380    1.87163      .   S
    O1186  C180      1.26792      .   S
    O1186  Cr1362    1.87206      .   S
    O265   C1076     1.26792      .   S
    O265   Cr1380    1.87206      .   S
    O190   C1176     1.26837      .   S
    O190   Cr1362    1.87163      .   S
    O12    C976      1.26777      .   S
    O12    Cr1320    1.87208      .   S
    O986   C1        1.26777      .   S
    O986   Cr1320    1.87208      .   S
    Cr1252 O1084     1.87068      .   S
    Cr1252 O1082     1.86955      .   S
    Cr1253 O984      1.87068      .   S
    Cr1253 O982      1.86955      .   S
    Cr1256 O188      1.87068      .   S
    Cr1256 O186      1.86955      .   S
    Cr1258 O1184     1.87068      .   S
    Cr1258 O1182     1.86955      .   S
    Cr1249 O10       1.87068      .   S
    Cr1249 O8        1.86955      .   S
    Cr1259 O263      1.87068      .   S
    Cr1259 O261      1.86955      .   S
    C976   O985      1.27101      .   S
    C180   O189      1.27083      .   S
    C1     O11       1.27101      .   S
    C1176  O1185     1.27072      .   S
    C1076  O1085     1.27083      .   S
    C255   O264      1.27072      .   S
    O327   C1393     1.26899      .   S
    O933   C1417     1.26899      .   S
    O698   C1393     1.26899      .   S
    O442   C1417     1.26899      .   S
    O542   C1441     1.26899      .   S
    O823   C1441     1.26899      .   S
    O707   Cr1309    1.88921      .   S
    O942   Cr1313    1.88907      .   S
    O336   Cr1308    1.88921      .   S
    O451   Cr1312    1.88931      .   S
    O551   Cr1316    1.88907      .   S
    O832   Cr1317    1.88931      .   S
    Cr675  O360      1.89821      .   S
    Cr675  O317      1.89821      .   S
    Cr679  O916      1.89821      .   S
    Cr679  O475      1.89821      .   S
    Cr683  O575      1.89821      .   S
    Cr683  O425      1.89821      .   S
    O1184  C1364     1.26848      .   S
    O188   C1364     1.26793      .   S
    O263   C1382     1.26848      .   S
    O10    C1322     1.26797      .   S
    O1084  C1382     1.26793      .   S
    O984   C1322     1.26797      .   S
    Cr1320 O995      1.86988      .   S
    Cr1320 O21       1.86988      .   S
    Cr1380 O274      1.87089      .   S
    Cr1380 O1095     1.87002      .   S
    Cr1362 O199      1.87002      .   S
    Cr1362 O1195     1.87089      .   S
    O189   Cr179     1.88703      .   S
    O985   Cr975     1.88714      .   S
    O1085  Cr1075    1.88703      .   S
    O11    Cr0       1.88714      .   S
    O1185  Cr1175    1.88729      .   S
    O264   Cr254     1.88729      .   S
    C1444  O553      1.27301      .   S
    C1444  O834      1.27301      .   S
    C1420  O453      1.27301      .   S
    C1420  O944      1.27301      .   S
    C1396  O338      1.27301      .   S
    C1396  O709      1.27301      .   S
    O916   C904      1.27469      .   S
    O575   C563      1.27469      .   S
    O425   C844      1.27469  1_455   S
    O360   C348      1.27469  1_455   S
    O317   C638      1.27469  1_545   S
    O475   C463      1.27469  1_545   S
    O680   Cr1313    1.92625      .   S
    O680   Cr1312    1.92625  1_565   S
    O684   Cr1316    1.92625      .   S
    O684   Cr1317    1.92625  1_655   S
    O676   Cr1309    1.92625  1_565   S
    O676   Cr1308    1.92625  1_655   S
    O8     C1464     1.26845      .   S
    O982   C1464     1.26845      .   S
    O1182  C1471     1.26845      .   S
    O1082  C1474     1.26845      .   S
    O261   C1474     1.26845      .   S
    O186   C1471     1.26845      .   S
    O553   Cr1316    1.89044      .   S
    O834   Cr1317    1.89044  1_655   S
    O453   Cr1312    1.89044  1_565   S
    O338   Cr1308    1.89044  1_655   S
    O944   Cr1313    1.89044      .   S
    O709   Cr1309    1.89044  1_565   S
    O199   C184      1.26672      .   S
    O274   C259      1.26629      .   S
    O995   C980      1.26639      .   S
    O1095  C1080     1.26672      .   S
    O21    C5        1.26639      .   S
    O1195  C1180     1.26629      .   S
    Cr1316 O426      1.88907      .   S
    Cr1316 O428      1.89044      .   S
    Cr1317 O576      1.88931      .   S
    Cr1317 O578      1.89044  1_455   S
    Cr1313 O476      1.88907      .   S
    Cr1313 O478      1.89044      .   S
    Cr1312 O917      1.88931      .   S
    Cr1312 O919      1.89044  1_545   S
    Cr1309 O361      1.88967      .   S
    Cr1309 O363      1.89044  1_545   S
    Cr1308 O318      1.88967      .   S
    Cr1308 O320      1.89044  1_455   S
    C904   O917      1.27285      .   S
    C463   O476      1.27273      .   S
    C563   O576      1.27285      .   S
    C844   O426      1.27273      .   S
    C348   O361      1.27227      .   S
    C638   O318      1.27227      .   S
    O1325  Cr0       1.92593      .   S
    O1325  Cr975     1.92593      .   S
    O1385  Cr1075    1.92607      .   S
    O1385  Cr254     1.92498      .   S
    O1367  Cr1175    1.92498      .   S
    O1367  Cr179     1.92607      .   S
    C1321  O983      1.26899      .   S
    C1321  O9        1.26899      .   S
    C1363  O187      1.26899      .   S
    C1363  O1183     1.26899      .   S
    C1381  O262      1.26899      .   S
    C1381  O1083     1.26899      .   S
    O262   Cr254     1.87187      .   S
    O983   Cr975     1.87145      .   S
    O1083  Cr1075    1.87206      .   S
    O187   Cr179     1.87206      .   S
    O1183  Cr1175    1.87187      .   S
    O9     Cr0       1.87145      .   S
    C980   O22       1.26993      .   S
    C1080  O275      1.27049      .   S
    C184   O1196     1.27049      .   S
    C1180  O200      1.27038      .   S
    C5     O996      1.26993      .   S
    C259   O1096     1.27038      .   S
    Cr1175 O1196     1.87232      .   S
    Cr1175 O1193     1.88990      .   S
    Cr0    O22       1.87307      .   S
    Cr0    O19       1.88990      .   S
    Cr975  O996      1.87307      .   S
    Cr975  O993      1.88990      .   S
    Cr1075 O1096     1.87184      .   S
    Cr1075 O1093     1.88990      .   S
    Cr179  O200      1.87184      .   S
    Cr179  O197      1.88990      .   S
    Cr254  O275      1.87232      .   S
    Cr254  O272      1.88990      .   S
    O428   C1450     1.27301      .   S
    O320   C1402     1.27301      .   S
    O478   C1426     1.27301      .   S
    O363   C1402     1.27301      .   S
    O919   C1426     1.27301      .   S
    O578   C1450     1.27301      .   S
    O272   C1383     1.27123      .   S
    O993   C1323     1.27177      .   S
    O197   C1365     1.27233      .   S
    O19    C1323     1.27177      .   S
    O1193  C1365     1.27123      .   S
    O1093  C1383     1.27233      .   S
    O473   C462      1.27495      .   S
    O473   Cr458     1.90167      .   S
    O423   C843      1.27495      .   S
    O423   Cr839     1.90167      .   S
    O358   C347      1.27495      .   S
    O358   Cr343     1.90167      .   S
    O315   C637      1.27495      .   S
    O315   Cr633     1.90167      .   S
    O914   C903      1.27495      .   S
    O914   Cr899     1.90167      .   S
    O573   C562      1.27495      .   S
    O573   Cr558     1.90167      .   S
    C1394  O328      1.26804      .   S
    C1394  O699      1.26804      .   S
    C1418  O934      1.26793      .   S
    C1418  O443      1.26848      .   S
    C1442  O543      1.26793      .   S
    C1442  O824      1.26848      .   S
    O922   C906      1.27271      .   S
    O922   Cr899     1.89273      .   S
    O323   C307      1.27213      .   S
    O323   Cr633     1.89273      .   S
    O481   C465      1.27224      .   S
    O481   Cr458     1.89273      .   S
    O431   C846      1.27224      .   S
    O431   Cr839     1.89273      .   S
    O366   C350      1.27213      .   S
    O366   Cr343     1.89273      .   S
    O581   C565      1.27271      .   S
    O581   Cr558     1.89273      .   S
    C637   O316      1.27276      .   S
    C347   O359      1.27276      .   S
    C462   O474      1.27276      .   S
    C562   O574      1.27239      .   S
    C843   O424      1.27276      .   S
    C903   O915      1.27239      .   S
    C307   O1198     1.26278      .   S
    C565   O24       1.26278      .   S
    C846   O1098     1.26278      .   S
    C350   O277      1.26278      .   S
    C465   O202      1.26278      .   S
    C906   O998      1.26278      .   S
    O543   Cr1269    1.87068      .   S
    O934   Cr1269    1.87068      .   S
    O328   Cr1261    1.87068      .   S
    O443   Cr1265    1.87068      .   S
    O824   Cr1261    1.87068      .   S
    O699   Cr1265    1.87068      .   S
    Cr899  O912      1.89409      .   S
    Cr899  O913      1.89948      .   S
    Cr899  O660      1.93298      .   S
    Cr458  O471      1.89409      .   S
    Cr458  O472      1.89929      .   S
    Cr839  O421      1.89409      .   S
    Cr839  O422      1.89929      .   S
    Cr633  O313      1.89409      .   S
    Cr633  O314      1.89988      .   S
    Cr558  O571      1.89409      .   S
    Cr558  O572      1.89948      .   S
    Cr558  O1274     1.93298      .   S
    Cr343  O356      1.89409      .   S
    Cr343  O357      1.89988      .   S
    O277   Cr1293    1.84888      .   S
    O202   Cr1287    1.84852      .   S
    O24    Cr1273    1.84892      .   S
    O1198  Cr1297    1.84888      .   S
    O998   Cr659     1.84892      .   S
    O1098  Cr653     1.84852      .   S
    O424   Cr653     1.88832      .   S
    O474   Cr1287    1.88832      .   S
    O574   Cr1273    1.88869      .   S
    O316   Cr1297    1.88873      .   S
    O915   Cr659     1.88869      .   S
    O359   Cr1293    1.88873      .   S
    C1465  O33       1.26845      .   S
    C1465  O957      1.26845      .   S
    C1470  O1157     1.26845      .   S
    C1470  O161      1.26845      .   S
    C1475  O286      1.26845      .   S
    C1475  O1057     1.26845      .   S
    O471   C461      1.27399      .   S
    O313   C636      1.27399      .   S
    O912   C902      1.27399      .   S
    O421   C842      1.27399      .   S
    O356   C346      1.27399      .   S
    O571   C561      1.27399      .   S
    O314   C1177     1.27492      .   S
    O913   C977      1.27509      .   S
    O422   C1077     1.27522      .   S
    O357   C256      1.27492      .   S
    O572   C2        1.27509      .   S
    O472   C181      1.27522      .   S
    O286   Cr1260    1.86955      .   S
    O33    Cr1250    1.86955      .   S
    O957   Cr1255    1.86955      .   S
    O1157  Cr1260    1.86955      .   S
    O161   Cr1255    1.86955      .   S
    O1057  Cr1250    1.86955      .   S
    O1492  Cr1265    1.92487      .   S
    O1492  Cr1269    1.92433      .   S
    Cr1261 O822      1.86955      .   S
    Cr1261 O326      1.86955      .   S
    Cr1265 O441      1.86955      .   S
    Cr1265 O697      1.86955      .   S
    Cr1269 O932      1.86955      .   S
    Cr1269 O541      1.86955      .   S
    C346   O267      1.27509      .   S
    C636   O1188     1.27509      .   S
    C561   O14       1.27492      .   S
    C902   O988      1.27492      .   S
    C461   O192      1.27522      .   S
    C842   O1088     1.27522      .   S
    Cr659  O660      1.92102      .   S
    Cr659  O990      1.88873      .   S
    Cr659  O923      1.84888      .   S
    Cr1297 O640      1.92102      .   S
    Cr1297 O1190     1.88869      .   S
    Cr1297 O324      1.84892      .   S
    O654   Cr653     1.92102      .   S
    O654   Cr1074    1.93298      .   S
    O640   Cr1174    1.93298      .   S
    Cr1273 O1274     1.92102      .   S
    Cr1273 O16       1.88873      .   S
    Cr1273 O582      1.84888      .   S
    Cr1287 O1288     1.92102      .   S
    Cr1287 O194      1.88832      .   S
    Cr1287 O482      1.84852      .   S
    O1288  Cr178     1.93298      .   S
    Cr653  O1090     1.88832      .   S
    Cr653  O432      1.84852      .   S
    O1294  Cr1293    1.92102      .   S
    O1294  Cr253     1.93298      .   S
    Cr1293 O269      1.88869      .   S
    Cr1293 O367      1.84892      .   S
    C1177  O1187     1.27399      .   S
    C977   O987      1.27399      .   S
    C256   O266      1.27399      .   S
    C1077  O1087     1.27399      .   S
    C2     O13       1.27399      .   S
    C181   O191      1.27399      .   S
    Cr1260 O1489     1.92433      .   S
    Cr1260 O288      1.87068      .   S
    Cr1260 O1159     1.87068      .   S
    Cr1255 O959      1.87068      .   S
    Cr1255 O163      1.87068      .   S
    Cr1250 O1489     1.92487      .   S
    Cr1250 O35       1.87068      .   S
    Cr1250 O1059     1.87068      .   S
    O441   C1480     1.26845      .   S
    O932   C1480     1.26845      .   S
    O822   C1484     1.26845      .   S
    O541   C1484     1.26845      .   S
    O697   C1476     1.26845      .   S
    O326   C1476     1.26845      .   S
    O192   Cr178     1.89929      .   S
    O267   Cr253     1.89948      .   S
    O1188  Cr1174    1.89948      .   S
    O14    Cr6       1.89988      .   S
    O1088  Cr1074    1.89929      .   S
    O988   Cr974     1.89988      .   S
    O1187  Cr1174    1.89409      .   S
    O13    Cr6       1.89409      .   S
    O987   Cr974     1.89409      .   S
    O266   Cr253     1.89409      .   S
    O191   Cr178     1.89409      .   S
    O1087  Cr1074    1.89409      .   S
    O269   C257      1.27239      .   S
    O16    C3        1.27276      .   S
    O990   C978      1.27276      .   S
    O1090  C1078     1.27276      .   S
    O1190  C1178     1.27239      .   S
    O194   C182      1.27276      .   S
    O482   C185      1.26278      .   S
    O923   C981      1.26278      .   S
    O432   C1081     1.26278      .   S
    O582   C7        1.26278      .   S
    O367   C260      1.26278      .   S
    O324   C1181     1.26278      .   S
    Cr1074 O1097     1.89273      .   S
    Cr1074 O1089     1.90167      .   S
    Cr974  O997      1.89273      .   S
    Cr974  O989      1.90167      .   S
    Cr6    O23       1.89273      .   S
    Cr6    O15       1.90167      .   S
    Cr253  O276      1.89273      .   S
    Cr253  O268      1.90167      .   S
    Cr178  O201      1.89273      .   S
    Cr178  O193      1.90167      .   S
    Cr1174 O1197     1.89273      .   S
    Cr1174 O1189     1.90167      .   S
    O959   C1328     1.26804      .   S
    O35    C1328     1.26804      .   S
    O1059  C1388     1.26848      .   S
    O288   C1388     1.26793      .   S
    O163   C1358     1.26848      .   S
    O1159  C1358     1.26793      .   S
    C981   O997      1.27213      .   S
    C7     O23       1.27213      .   S
    C260   O276      1.27271      .   S
    C1181  O1197     1.27271      .   S
    C1081  O1097     1.27224      .   S
    C185   O201      1.27224      .   S
    C257   O268      1.27495      .   S
    C978   O989      1.27495      .   S
    C182   O193      1.27495      .   S
    C3     O15       1.27495      .   S
    C1078  O1089     1.27495      .   S
    C1178  O1189     1.27495      .   S
    C1401  O362      1.27177      .   S
    C1401  O319      1.27177      .   S
    C1425  O918      1.27123      .   S
    C1425  O477      1.27233      .   S
    C1449  O577      1.27123      .   S
    C1449  O427      1.27233      .   S
    O918   Cr900     1.88990      .   S
    O477   Cr459     1.88990      .   S
    O362   Cr344     1.88990      .   S
    O577   Cr559     1.88990      .   S
    O319   Cr634     1.88990      .   S
    O427   Cr840     1.88990      .   S
    C1366  O198      1.27301      .   S
    C1366  O1194     1.27301      .   S
    C1324  O994      1.27301      .   S
    C1324  O20       1.27301      .   S
    C1384  O273      1.27301      .   S
    C1384  O1094     1.27301      .   S
    O198   Cr1303    1.89044      .   S
    O273   Cr1306    1.89044      .   S
    O1194  Cr1302    1.89044      .   S
    O994   Cr688     1.89044      .   S
    O20    Cr687     1.89044      .   S
    O1094  Cr1307    1.89044      .   S
    O480   Cr459     1.87184      .   S
    O480   C905      1.27038      .   S
    O322   Cr634     1.87307      .   S
    O322   C349      1.26993      .   S
    O430   Cr840     1.87184      .   S
    O430   C564      1.27038      .   S
    O365   Cr344     1.87307      .   S
    O365   C639      1.26993      .   S
    O580   Cr559     1.87232      .   S
    O580   C845      1.27049      .   S
    O921   Cr900     1.87232      .   S
    O921   C464      1.27049      .   S
    Cr900  O908      1.87187      .   S
    Cr900  O1427     1.92498      .   S
    Cr900  O910      1.88729      .   S
    Cr840  O848      1.87206      .   S
    Cr840  O1451     1.92607      .   S
    Cr840  O419      1.88703      .   S
    Cr559  O567      1.87187      .   S
    Cr559  O1451     1.92498      .   S
    Cr559  O569      1.88729      .   S
    Cr459  O467      1.87206      .   S
    Cr459  O1427     1.92607      .   S
    Cr459  O469      1.88703      .   S
    Cr634  O309      1.87145      .   S
    Cr634  O1403     1.92593      .   S
    Cr634  O311      1.88714      .   S
    Cr344  O352      1.87145      .   S
    Cr344  O1403     1.92593      .   S
    Cr344  O354      1.88714      .   S
    C349   O364      1.26639      .   S
    C564   O579      1.26629      .   S
    C464   O479      1.26672      .   S
    C639   O321      1.26639      .   S
    C905   O920      1.26629      .   S
    C845   O429      1.26672      .   S
    O309   C1399     1.26899      .   S
    O352   C1399     1.26899      .   S
    O908   C1423     1.26899      .   S
    O848   C1447     1.26899      .   S
    O467   C1423     1.26899      .   S
    O567   C1447     1.26899      .   S
    O992   C979      1.27227      .   S
    O992   Cr688     1.88967      .   S
    O196   C183      1.27273      .   S
    O196   Cr1303    1.88907      .   S
    O18    C4        1.27227      .   S
    O18    Cr687     1.88967      .   S
    O1092  C1079     1.27273      .   S
    O1092  Cr1307    1.88907      .   S
    O1192  C1179     1.27285      .   S
    O1192  Cr1302    1.88931      .   S
    O271   C258      1.27285      .   S
    O271   Cr1306    1.88931      .   S
    C1179  O1191     1.27469      .   S
    C183   O195      1.27469      .   S
    C4     O17       1.27469      .   S
    C1079  O1091     1.27469      .   S
    C258   O270      1.27469      .   S
    C979   O991      1.27469      .   S
    Cr1306 O1069     1.89044      .   S
    Cr1306 O674      1.92625      .   S
    Cr1306 O1067     1.88931      .   S
    Cr688  O46       1.89044      .   S
    Cr688  O664      1.92625      .   S
    Cr688  O44       1.88921      .   S
    Cr1307 O298      1.89044      .   S
    Cr1307 O674      1.92625      .   S
    Cr1307 O296      1.88907      .   S
    Cr1302 O173      1.89044      .   S
    Cr1302 O670      1.92625      .   S
    Cr1302 O171      1.88931      .   S
    Cr687  O969      1.89044      .   S
    Cr687  O664      1.92625      .   S
    Cr687  O967      1.88921      .   S
    Cr1303 O1169     1.89044      .   S
    Cr1303 O670      1.92625      .   S
    Cr1303 O1167     1.88907      .   S
    C1477  O351      1.26845      .   S
    C1477  O308      1.26845      .   S
    C1481  O466      1.26845      .   S
    C1481  O907      1.26845      .   S
    C1485  O566      1.26845      .   S
    C1485  O847      1.26845      .   S
    O364   Cr1398    1.86988      .   S
    O429   Cr1446    1.87002      .   S
    O579   Cr1446    1.87089      .   S
    O321   Cr1398    1.86988      .   S
    O920   Cr1422    1.87089      .   S
    O479   Cr1422    1.87002      .   S
    O46    C1330     1.27301      .   S
    O969   C1330     1.27301      .   S
    O1169  C1360     1.27301      .   S
    O1069  C1390     1.27301      .   S
    O298   C1390     1.27301      .   S
    O173   C1360     1.27301      .   S
    O566   Cr1270    1.86955      .   S
    O847   Cr1263    1.86955      .   S
    O466   Cr1266    1.86955      .   S
    O351   Cr1262    1.86955      .   S
    O907   Cr1271    1.86955      .   S
    O308   Cr1267    1.86955      .   S
    O17    Cr663     1.89821      .   S
    O1191  Cr669     1.89821      .   S
    O991   Cr663     1.89821      .   S
    O195   Cr669     1.89821      .   S
    O1091  Cr673     1.89821      .   S
    O270   Cr673     1.89821      .   S
    O569   C560      1.27072      .   S
    O311   C635      1.27101      .   S
    O910   C901      1.27072      .   S
    O469   C460      1.27083      .   S
    O354   C345      1.27101      .   S
    O419   C841      1.27083      .   S
    Cr1446 O570      1.87206      .   S
    Cr1446 O420      1.87163      .   S
    Cr1422 O911      1.87206      .   S
    Cr1422 O470      1.87163      .   S
    Cr1398 O312      1.87208      .   S
    Cr1398 O355      1.87208      .   S
    C1424  O909      1.26848      .   S
    C1424  O468      1.26793      .   S
    C1448  O418      1.26793      .   S
    C1448  O568      1.26848      .   S
    C1400  O310      1.26797      .   S
    C1400  O353      1.26797      .   S
    C1387  O287      1.26899      .   S
    C1387  O1058     1.26899      .   S
    C1327  O958      1.26899      .   S
    C1327  O34       1.26899      .   S
    C1357  O1158     1.26899      .   S
    C1357  O162      1.26899      .   S
    O909   Cr1271    1.87068      .   S
    O418   Cr1263    1.87068      .   S
    O310   Cr1267    1.87068      .   S
    O468   Cr1266    1.87068      .   S
    O353   Cr1262    1.87068      .   S
    O568   Cr1270    1.87068      .   S
    Cr669  O170      1.89821      .   S
    Cr669  O1166     1.89821      .   S
    Cr673  O295      1.89821      .   S
    Cr673  O1066     1.89821      .   S
    Cr663  O966      1.89821      .   S
    Cr663  O43       1.89821      .   S
    O296   C283      1.27273      .   S
    O171   C158      1.27285      .   S
    O1067  C1054     1.27285      .   S
    O1167  C1154     1.27273      .   S
    O967   C954      1.27252      .   S
    O44    C30       1.27252      .   S
    O958   Cr950     1.87172      .   S
    O34    Cr26      1.87172      .   S
    O287   Cr279     1.87206      .   S
    O1058  Cr1050    1.87187      .   S
    O1158  Cr1150    1.87206      .   S
    O162   Cr152     1.87187      .   S
    C841   O570      1.26792      .   S
    C460   O911      1.26792      .   S
    C901   O470      1.26837      .   S
    C345   O312      1.26777      .   S
    C635   O355      1.26777      .   S
    C560   O420      1.26837      .   S
    Cr1271 O591      1.86955      .   S
    Cr1271 O593      1.87068      .   S
    Cr1262 O772      1.86955      .   S
    Cr1262 O1493     1.92469      .   S
    Cr1262 O774      1.87068      .   S
    Cr1263 O376      1.86955      .   S
    Cr1263 O1494     1.92433      .   S
    Cr1263 O378      1.87068      .   S
    Cr1266 O747      1.86955      .   S
    Cr1266 O1495     1.92433      .   S
    Cr1266 O749      1.87068      .   S
    Cr1267 O491      1.86955      .   S
    Cr1267 O493      1.87068      .   S
    Cr1270 O882      1.86955      .   S
    Cr1270 O1494     1.92487      .   S
    Cr1270 O884      1.87068      .   S
    C1389  O297      1.27233      .   S
    C1389  O1068     1.27123      .   S
    C1359  O1168     1.27233      .   S
    C1359  O172      1.27123      .   S
    C1329  O45       1.27227      .   S
    C1329  O968      1.27227      .   S
    O882   C1483     1.26845      .   S
    O591   C1486     1.26845      .   S
    O491   C1482     1.26845      .   S
    O747   C1479     1.26845      .   S
    O772   C1487     1.26845      .   S
    O376   C1478     1.26845      .   S
    O297   Cr279     1.88990      .   S
    O1168  Cr1150    1.88990      .   S
    O1068  Cr1050    1.88990      .   S
    O172   Cr152     1.88990      .   S
    O45    Cr26      1.88990      .   S
    O968   Cr950     1.88990      .   S
    C1054  O1066     1.27469      .   S
    C30    O43       1.27469      .   S
    C158   O170      1.27469      .   S
    C954   O966      1.27469      .   S
    C1154  O1166     1.27469      .   S
    C283   O295      1.27469      .   S
    O1495  Cr1264    1.92487      .   S
    O1493  Cr1272    1.92469      .   S
    Cr279  O289      1.88703      .   S
    Cr279  O1391     1.92607      .   S
    Cr279  O300      1.87184      .   S
    Cr950  O960      1.88668      .   S
    Cr950  O1331     1.92532      .   S
    Cr950  O971      1.87258      .   S
    Cr1050 O1060     1.88729      .   S
    Cr1050 O1391     1.92498      .   S
    Cr1050 O1071     1.87232      .   S
    Cr1150 O1160     1.88703      .   S
    Cr1150 O1361     1.92607      .   S
    Cr1150 O1171     1.87184      .   S
    Cr152  O164      1.88729      .   S
    Cr152  O1361     1.92498      .   S
    Cr152  O175      1.87232      .   S
    Cr26   O36       1.88668      .   S
    Cr26   O1331     1.92532      .   S
    Cr26   O48       1.87258      .   S
    O749   C1412     1.26793      .   S
    O774   C1460     1.26797      .   S
    O493   C1430     1.26797      .   S
    O884   C1436     1.26804      .   S
    O593   C1454     1.26804      .   S
    O378   C1406     1.26793      .   S
    C1483  O516      1.26845      .   S
    C1478  O722      1.26845      .   S
    C1482  O857      1.26845      .   S
    C1486  O797      1.26845      .   S
    C1479  O401      1.26845      .   S
    C1487  O616      1.26845      .   S
    O289   C280      1.27083      .   S
    O1160  C1151     1.27083      .   S
    O36    C27       1.27040      .   S
    O960   C951      1.27040      .   S
    O1060  C1051     1.27072      .   S
    O164   C153      1.27072      .   S
    O516   Cr1268    1.86955      .   S
    O797   Cr1264    1.86955      .   S
    O857   Cr1272    1.86955      .   S
    O722   Cr1268    1.86955      .   S
    O401   Cr1264    1.86955      .   S
    O616   Cr1272    1.86955      .   S
    C1051  O290      1.26837      .   S
    C951   O38       1.26808      .   S
    C280   O1061     1.26792      .   S
    C153   O1161     1.26837      .   S
    C27    O961      1.26808      .   S
    C1151  O165      1.26792      .   S
    C1406  O724      1.26848      .   S
    C1436  O518      1.26804      .   S
    C1430  O859      1.26797      .   S
    C1412  O403      1.26848      .   S
    C1454  O799      1.26804      .   S
    C1460  O618      1.26797      .   S
    Cr1268 O724      1.87068      .   S
    Cr1268 O518      1.87068      .   S
    Cr1272 O618      1.87068      .   S
    Cr1272 O859      1.87068      .   S
    Cr1264 O799      1.87068      .   S
    Cr1264 O403      1.87068      .   S
    O48    C955      1.27044      .   S
    O175   C1155     1.27049      .   S
    O971   C31       1.27044      .   S
    O300   C1055     1.27038      .   S
    O1171  C159      1.27038      .   S
    O1071  C284      1.27049      .   S
    O961   Cr1326    1.87222      .   S
    O38    Cr1326    1.87222      .   S
    O1061  Cr1386    1.87206      .   S
    O165   Cr1356    1.87206      .   S
    O1161  Cr1356    1.87163      .   S
    O290   Cr1386    1.87163      .   S
    Cr1326 O970      1.86975      .   S
    Cr1326 O47       1.86975      .   S
    Cr1386 O299      1.87002      .   S
    Cr1386 O1070     1.87089      .   S
    Cr1356 O174      1.87089      .   S
    Cr1356 O1170     1.87002      .   S
    C159   O174      1.26629      .   S
    C955   O970      1.26682      .   S
    C1055  O1070     1.26629      .   S
    C284   O299      1.26672      .   S
    C31    O47       1.26682      .   S
    C1155  O1170     1.26672      .   S
    O379   C370      1.27083      .   S
    O379   Cr369     1.88703      .   S
    O750   C741      1.27083      .   S
    O750   Cr740     1.88703      .   S
    O775   C766      1.27101      .   S
    O775   Cr765     1.88714      .   S
    O885   C876      1.27040      .   S
    O885   Cr875     1.88668      .   S
    O494   C485      1.27101      .   S
    O494   Cr484     1.88714      .   S
    O594   C585      1.27040      .   S
    O594   Cr584     1.88668      .   S
    C876   O520      1.26808      .   S
    C766   O620      1.26777      .   S
    C485   O861      1.26777      .   S
    C741   O405      1.26792      .   S
    C370   O726      1.26792      .   S
    C585   O801      1.26808      .   S
    O592   Cr584     1.87172      .   S
    O592   C1453     1.26899      .   S
    O377   Cr369     1.87206      .   S
    O377   C1405     1.26899      .   S
    O748   Cr740     1.87206      .   S
    O748   C1411     1.26899      .   S
    O773   Cr765     1.87145      .   S
    O773   C1459     1.26899      .   S
    O492   Cr484     1.87145      .   S
    O492   C1429     1.26899      .   S
    O883   Cr875     1.87172      .   S
    O883   C1435     1.26899      .   S
    O965   C953      1.27302      .   S
    O965   Cr657     1.88823      .   S
    O42    C29       1.27302      .   S
    O42    Cr1275    1.88823      .   S
    O1065  C1053     1.27239      .   S
    O1065  Cr647     1.88869      .   S
    O169   C157      1.27239      .   S
    O169   Cr1285    1.88869      .   S
    O294   C282      1.27276      .   S
    O294   Cr1295    1.88832      .   S
    O1165  C1153     1.27276      .   S
    O1165  Cr645     1.88832      .   S
    C157   O168      1.27495      .   S
    C282   O293      1.27495      .   S
    C1053  O1064     1.27495      .   S
    C953   O964      1.27495      .   S
    C29    O41       1.27495      .   S
    C1153  O1164     1.27495      .   S
    O620   Cr1458    1.87208      .   S
    O801   Cr1452    1.87222      .   S
    O861   Cr1428    1.87208      .   S
    O726   Cr1404    1.87206      .   S
    O405   Cr1410    1.87206      .   S
    O520   Cr1434    1.87222      .   S
    Cr484  O505      1.87307      .   S
    Cr484  O502      1.88990      .   S
    Cr484  O1433     1.92593      .   S
    Cr765  O786      1.87307      .   S
    Cr765  O783      1.88990      .   S
    Cr765  O1463     1.92593      .   S
    Cr740  O761      1.87184      .   S
    Cr740  O758      1.88990      .   S
    Cr740  O1415     1.92607      .   S
    Cr584  O605      1.87258      .   S
    Cr584  O602      1.88990      .   S
    Cr584  O1457     1.92532      .   S
    Cr369  O390      1.87184      .   S
    Cr369  O387      1.88990      .   S
    Cr369  O1409     1.92607      .   S
    Cr875  O896      1.87258      .   S
    Cr875  O893      1.88990      .   S
    Cr875  O1439     1.92532      .   S
    C1411  O402      1.26899      .   S
    C1429  O858      1.26899      .   S
    C1405  O723      1.26899      .   S
    C1435  O517      1.26899      .   S
    C1453  O798      1.26899      .   S
    C1459  O617      1.26899      .   S
    O390   C720      1.27038      .   S
    O605   C795      1.27044      .   S
    O505   C855      1.26993      .   S
    O761   C399      1.27038      .   S
    O896   C514      1.27044      .   S
    O786   C614      1.26993      .   S
    O1173  Cr645     1.84852      .   S
    O1173  C746      1.26278      .   S
    O1073  Cr647     1.84888      .   S
    O1073  C771      1.26278      .   S
    O973   Cr657     1.84913      .   S
    O973   C881      1.26278      .   S
    O50    Cr1275    1.84913      .   S
    O50    C590      1.26278      .   S
    O302   Cr1295    1.84852      .   S
    O302   C375      1.26278      .   S
    O177   Cr1285    1.84888      .   S
    O177   C490      1.26278      .   S
    C614   O629      1.26639      .   S
    C399   O414      1.26629      .   S
    C855   O870      1.26639      .   S
    C795   O810      1.26682      .   S
    C514   O529      1.26682      .   S
    C720   O735      1.26629      .   S
    Cr647  O788      1.84892      .   S
    Cr647  O780      1.88873      .   S
    Cr647  O648      1.92102      .   S
    Cr1275 O607      1.84913      .   S
    Cr1275 O599      1.88823      .   S
    Cr1275 O1276     1.92102      .   S
    Cr1285 O507      1.84892      .   S
    Cr1285 O499      1.88873      .   S
    Cr1285 O1286     1.92102      .   S
    Cr1295 O392      1.84852      .   S
    Cr1295 O384      1.88832      .   S
    Cr1295 O1296     1.92102      .   S
    Cr657  O898      1.84913      .   S
    Cr657  O890      1.88823      .   S
    Cr657  O658      1.92102      .   S
    Cr645  O763      1.84852      .   S
    Cr645  O755      1.88832      .   S
    Cr645  O646      1.92102      .   S
    O168   Cr151     1.90167      .   S
    O964   Cr949     1.90167      .   S
    O1064  Cr1049    1.90167      .   S
    O1164  Cr1149    1.90167      .   S
    O41    Cr25      1.90167      .   S
    O293   Cr278     1.90167      .   S
    O783   C1461     1.27177      .   S
    O893   C1437     1.27227      .   S
    O502   C1431     1.27177      .   S
    O758   C1413     1.27233      .   S
    O387   C1407     1.27233      .   S
    O602   C1455     1.27227      .   S
    O788   C1056     1.26278      .   S
    O507   C160      1.26278      .   S
    O392   C285      1.26278      .   S
    O763   C1156     1.26278      .   S
    O898   C956      1.26278      .   S
    O607   C32       1.26278      .   S
    O723   Cr715     1.87187      .   S
    O617   Cr609     1.87145      .   S
    O858   Cr850     1.87145      .   S
    O798   Cr790     1.87172      .   S
    O517   Cr509     1.87172      .   S
    O402   Cr394     1.87187      .   S
    C771   O787      1.27213      .   S
    C375   O391      1.27224      .   S
    C881   O897      1.27227      .   S
    C590   O606      1.27227      .   S
    C490   O506      1.27213      .   S
    C746   O762      1.27224      .   S
    O735   Cr1404    1.87089      .   S
    O529   Cr1434    1.86975      .   S
    O870   Cr1428    1.86988      .   S
    O414   Cr1410    1.87089      .   S
    O810   Cr1452    1.86975      .   S
    O629   Cr1458    1.86988      .   S
    O1415  Cr394     1.92498      .   S
    O1409  Cr715     1.92498      .   S
    O1463  Cr609     1.92593      .   S
    O1439  Cr509     1.92532      .   S
    O1457  Cr790     1.92532      .   S
    O1433  Cr850     1.92593      .   S
    C956   O972      1.27227      .   S
    C285   O301      1.27224      .   S
    C32    O49       1.27227      .   S
    C1156  O1172     1.27224      .   S
    C1056  O1072     1.27271      .   S
    C160   O176      1.27271      .   S
    Cr1428 O495      1.87208      .   S
    Cr1428 O504      1.86988      .   S
    Cr1458 O776      1.87208      .   S
    Cr1458 O785      1.86988      .   S
    Cr1452 O595      1.87222      .   S
    Cr1452 O604      1.86975      .   S
    Cr1404 O380      1.87163      .   S
    Cr1404 O389      1.87002      .   S
    Cr1410 O751      1.87163      .   S
    Cr1410 O760      1.87002      .   S
    Cr1434 O886      1.87222      .   S
    Cr1434 O895      1.86975      .   S
    O499   C487      1.27276      .   S
    O890   C878      1.27302      .   S
    O780   C768      1.27276      .   S
    O599   C587      1.27302      .   S
    O384   C372      1.27276      .   S
    O755   C743      1.27276      .   S
    O751   C395      1.26837      .   S
    O776   C610      1.26777      .   S
    O886   C510      1.26808      .   S
    O495   C851      1.26777      .   S
    O380   C716      1.26837      .   S
    O595   C791      1.26808      .   S
    C1461  O627      1.27177      .   S
    C1455  O808      1.27227      .   S
    C1437  O527      1.27227      .   S
    C1407  O733      1.27123      .   S
    C1431  O868      1.27177      .   S
    C1413  O412      1.27123      .   S
    O972   Cr949     1.89273      .   S
    O176   Cr151     1.89273      .   S
    O301   Cr278     1.89273      .   S
    O49    Cr25      1.89273      .   S
    O1072  Cr1049    1.89273      .   S
    O1172  Cr1149    1.89273      .   S
    C395   O404      1.27072      .   S
    C851   O860      1.27101      .   S
    C716   O725      1.27072      .   S
    C791   O800      1.27040      .   S
    C610   O619      1.27101      .   S
    C510   O519      1.27040      .   S
    O1286  Cr151     1.93298      .   S
    O658   Cr874     1.93298      .   S
    O648   Cr1049    1.93298      .   S
    O646   Cr1149    1.93298      .   S
    O1296  Cr278     1.93298      .   S
    O1276  Cr583     1.93298      .   S
    O787   Cr764     1.89273      .   S
    O606   Cr583     1.89273      .   S
    O391   Cr368     1.89273      .   S
    O897   Cr874     1.89273      .   S
    O762   Cr739     1.89273      .   S
    O506   Cr483     1.89273      .   S
    Cr509  O519      1.88668      .   S
    Cr509  O527      1.88990      .   S
    Cr509  O530      1.87258      .   S
    Cr394  O404      1.88729      .   S
    Cr394  O412      1.88990      .   S
    Cr394  O415      1.87232      .   S
    Cr715  O725      1.88729      .   S
    Cr715  O733      1.88990      .   S
    Cr715  O736      1.87232      .   S
    Cr609  O619      1.88714      .   S
    Cr609  O627      1.88990      .   S
    Cr609  O630      1.87307      .   S
    Cr850  O860      1.88714      .   S
    Cr850  O868      1.88990      .   S
    Cr850  O871      1.87307      .   S
    Cr790  O800      1.88668      .   S
    Cr790  O808      1.88990      .   S
    Cr790  O811      1.87258      .   S
    Cr1149 O1162     1.89409      .   S
    Cr1149 O1163     1.89929      .   S
    Cr278  O291      1.89409      .   S
    Cr278  O292      1.89929      .   S
    Cr25   O39       1.89409      .   S
    Cr25   O40       1.89940      .   S
    Cr151  O166      1.89409      .   S
    Cr151  O167      1.89948      .   S
    Cr949  O962      1.89409      .   S
    Cr949  O963      1.89940      .   S
    Cr1049 O1062     1.89409      .   S
    Cr1049 O1063     1.89948      .   S
    C768   O779      1.27495      .   S
    C487   O498      1.27495      .   S
    C743   O754      1.27495      .   S
    C372   O383      1.27495      .   S
    C587   O598      1.27495      .   S
    C878   O889      1.27495      .   S
    O291   C281      1.27399      .   S
    O962   C952      1.27399      .   S
    O166   C78       1.27399      .   S
    O39    C28       1.27399      .   S
    O1162  C1152     1.27399      .   S
    O1062  C1052     1.27399      .   S
    O603   Cr1318    1.89044  1_565   S
    O603   C1456     1.27301      .   S
    O784   Cr1318    1.89044  1_565   S
    O784   C1462     1.27301      .   S
    O759   Cr1310    1.89044      .   S
    O759   C1414     1.27301      .   S
    O388   Cr1310    1.89044      .   S
    O388   C1408     1.27301      .   S
    O503   Cr1314    1.89044  1_655   S
    O503   C1432     1.27301      .   S
    O894   Cr1314    1.89044  1_655   S
    O894   C1438     1.27301      .   S
    O760   C745      1.26672      .   S
    O785   C770      1.26639      .   S
    O389   C374      1.26672      .   S
    O604   C589      1.26682      .   S
    O895   C880      1.26682      .   S
    O504   C489      1.26639      .   S
    Cr1318 O601      1.88921      .   S
    Cr1318 O782      1.88967      .   S
    Cr1318 O686      1.92625  1_545   S
    Cr1314 O501      1.88967      .   S
    Cr1314 O892      1.88921      .   S
    Cr1314 O682      1.92625  1_455   S
    Cr1310 O757      1.88907      .   S
    Cr1310 O386      1.88907      .   S
    Cr1310 O678      1.92625      .   S
    O501   C488      1.27227      .   S
    O757   C744      1.27273      .   S
    O892   C879      1.27252      .   S
    O601   C588      1.27252      .   S
    O386   C373      1.27273      .   S
    O782   C769      1.27227      .   S
    C78    O497      1.27492      .   S
    C28    O597      1.27552      .   S
    C1152  O753      1.27522      .   S
    C1052  O778      1.27492      .   S
    C281   O382      1.27522      .   S
    C952   O888      1.27552      .   S
    O754   Cr739     1.90167      .   S
    O383   Cr368     1.90167      .   S
    O779   Cr764     1.90167      .   S
    O889   Cr874     1.90167      .   S
    O498   Cr483     1.90167      .   S
    O598   Cr583     1.90167      .   S
    Cr583  O597      1.89940      .   S
    Cr583  O596      1.89409      .   S
    Cr874  O888      1.89940      .   S
    Cr874  O887      1.89409      .   S
    Cr764  O778      1.89988      .   S
    Cr764  O777      1.89409      .   S
    Cr739  O753      1.89929      .   S
    Cr739  O752      1.89409      .   S
    Cr368  O382      1.89929      .   S
    Cr368  O381      1.89409      .   S
    Cr483  O497      1.89988      .   S
    Cr483  O496      1.89409      .   S
    C1462  O628      1.27301      .   S
    C1438  O528      1.27301      .   S
    C1408  O734      1.27301      .   S
    C1432  O869      1.27301      .   S
    C1456  O809      1.27301      .   S
    C1414  O413      1.27301      .   S
    O871   C489      1.26993      .   S
    O630   C770      1.26993      .   S
    O415   C745      1.27049      .   S
    O530   C880      1.27044      .   S
    O811   C589      1.27044      .   S
    O736   C374      1.27049      .   S
    O167   C486      1.27509      .   S
    O963   C877      1.27552      .   S
    O292   C371      1.27522      .   S
    O1063  C767      1.27509      .   S
    O1163  C742      1.27522      .   S
    O40    C586      1.27552      .   S
    O887   C877      1.27399      .   S
    O381   C371      1.27399      .   S
    O752   C742      1.27399      .   S
    O596   C586      1.27399      .   S
    O777   C767      1.27399      .   S
    O496   C486      1.27399      .   S
    O1274  Cr6       1.93298      .   S
    O1276  Cr25      1.93298      .   S
    O1278  Cr51      1.93298      .   S
    O1280  Cr533     1.93298      .   S
    O1282  Cr433     1.93298      .   S
    O1284  Cr126     1.93298      .   S
    O1286  Cr483     1.93298      .   S
    O1288  Cr458     1.93298      .   S
    O1290  Cr203     1.93298      .   S
    O1292  Cr228     1.93298      .   S
    O1294  Cr343     1.93298      .   S
    O1296  Cr368     1.93298      .   S
    O640   Cr633     1.93298      .   S
    O642   Cr1199    1.93298      .   S
    O644   Cr714     1.93298      .   S
    O646   Cr739     1.93298      .   S
    O648   Cr764     1.93298      .   S
    O650   Cr1124    1.93298      .   S
    O652   Cr814     1.93298      .   S
    O654   Cr839     1.93298      .   S
    O656   Cr1024    1.93298      .   S
    O658   Cr949     1.93298      .   S
    O660   Cr974     1.93298      .   S
    O662   Cr999     1.93298      .   S
    O664   Cr663     1.93201      .   S
    O666   Cr665     1.93201      .   S
    O668   Cr667     1.93201      .   S
    O670   Cr669     1.93201      .   S
    O672   Cr671     1.93201      .   S
    O674   Cr673     1.93201      .   S
    O676   Cr675     1.93201  1_665   S
    O678   Cr677     1.93201  1_556   S
    O680   Cr679     1.93201  1_565   S
    O682   Cr681     1.93201  1_656   S
    O684   Cr683     1.93201  1_655   S
    O686   Cr685     1.93201  1_566   S
    O1325  Cr1320    1.92913      .   S
    O1331  Cr1326    1.92913      .   S
    O1337  Cr1332    1.92913      .   S
    O1343  Cr1338    1.92913      .   S
    O1349  Cr1344    1.92913      .   S
    O1355  Cr1350    1.92913      .   S
    O1361  Cr1356    1.92913      .   S
    O1367  Cr1362    1.92913      .   S
    O1373  Cr1368    1.92913      .   S
    O1379  Cr1374    1.92913      .   S
    O1385  Cr1380    1.92913      .   S
    O1391  Cr1386    1.92913      .   S
    O1397  Cr1392    1.92913      .   S
    O1403  Cr1398    1.92913      .   S
    O1409  Cr1404    1.92913      .   S
    O1415  Cr1410    1.92913      .   S
    O1421  Cr1416    1.92913      .   S
    O1427  Cr1422    1.92913      .   S
    O1433  Cr1428    1.92913      .   S
    O1439  Cr1434    1.92913      .   S
    O1445  Cr1440    1.92913      .   S
    O1451  Cr1446    1.92913      .   S
    O1457  Cr1452    1.92913      .   S
    O1463  Cr1458    1.92913      .   S
    O1488  Cr1249    1.92469      .   S
    O1489  Cr1255    1.92487      .   S
    O1490  Cr1258    1.92487      .   S
    O1491  Cr1254    1.92487      .   S
    O1492  Cr1261    1.92487      .   S
    O1493  Cr1267    1.92469      .   S
    O1494  Cr1268    1.92487      .   S
    O1495  Cr1271    1.92487      .   S
