# CIF file generated by openbabel 2.4.90, see http://openbabel.sf.net
data_I
_chemical_name_common ''
_cell_length_a 62.8399
_cell_length_b 62.8399
_cell_length_c 62.8399
_cell_angle_alpha 60
_cell_angle_beta 60
_cell_angle_gamma 60
_space_group_name_H-M_alt 'P 1'
_space_group_name_Hall 'P 1'
loop_
    _symmetry_equiv_pos_as_xyz
    x,y,z
loop_
    _atom_site_label
    _atom_site_type_symbol
    _atom_site_fract_x
    _atom_site_fract_y
    _atom_site_fract_z
    _atom_site_occupancy
    C0      C    0.31227   0.38220   0.47489   1.000
    C1      C    0.15936   0.25305   0.62501   1.000
    C2      C    0.14404   0.29961   0.66831   1.000
    C3      C    0.20310   0.27199   0.73261   1.000
    C4      C    0.34166   0.27304   0.52830   1.000
    C5      C    0.07796   0.33257   0.66808   1.000
    C6      C    0.38220   0.31227   0.83063   1.000
    C7      C    0.25305   0.15936   0.96258   1.000
    C8      C    0.29961   0.14404   0.88804   1.000
    C9      C    0.27199   0.20310   0.79230   1.000
    C10     C    0.27304   0.34166   0.85700   1.000
    C11     C    0.33257   0.07796   0.92138   1.000
    C12     C    0.83063   0.47489   0.38220   1.000
    C13     C    0.47489   0.83063   0.31227   1.000
    C14     C    0.62501   0.96258   0.15936   1.000
    C15     C    0.66831   0.88804   0.14404   1.000
    C16     C    0.73261   0.79230   0.20310   1.000
    C17     C    0.52830   0.85700   0.34166   1.000
    C18     C    0.66808   0.92138   0.07796   1.000
    C19     C    0.15936   0.62501   0.96258   1.000
    C20     C    0.96258   0.62501   0.25305   1.000
    C21     C    0.88804   0.66831   0.29961   1.000
    C22     C    0.79230   0.73261   0.27199   1.000
    C23     C    0.85700   0.52830   0.27304   1.000
    C24     C    0.92138   0.66808   0.33257   1.000
    C25     C    0.47489   0.31227   0.38220   1.000
    C26     C    0.62501   0.15936   0.25305   1.000
    C27     C    0.66831   0.14404   0.29961   1.000
    C28     C    0.73261   0.20310   0.27199   1.000
    C29     C    0.52830   0.34166   0.27304   1.000
    C30     C    0.66808   0.07796   0.33257   1.000
    C31     C    0.83063   0.38220   0.31227   1.000
    C32     C    0.96258   0.25305   0.15936   1.000
    C33     C    0.88804   0.29961   0.14404   1.000
    C34     C    0.79230   0.27199   0.20310   1.000
    C35     C    0.85700   0.27304   0.34166   1.000
    C36     C    0.92138   0.33257   0.07796   1.000
    C37     C    0.31227   0.47489   0.83063   1.000
    C38     C    0.10596   0.95039   0.36196   1.000
    C39     C    0.04690   0.97801   0.45770   1.000
    C40     C    0.90834   0.97696   0.39300   1.000
    C41     C    0.14404   0.66831   0.88804   1.000
    C42     C    0.20310   0.73261   0.79230   1.000
    C43     C    0.34166   0.52830   0.85700   1.000
    C44     C    0.07796   0.66808   0.92138   1.000
    C45     C    0.38220   0.83063   0.47489   1.000
    C46     C    0.25305   0.96258   0.62501   1.000
    C47     C    0.29961   0.88804   0.66831   1.000
    C48     C    0.27199   0.79230   0.73261   1.000
    C49     C    0.27304   0.85700   0.52830   1.000
    C50     C    0.33257   0.92138   0.66808   1.000
    C51     C    0.38220   0.47489   0.31227   1.000
    C52     C    0.25305   0.62501   0.15936   1.000
    C53     C    0.29961   0.66831   0.14404   1.000
    C54     C    0.27199   0.73261   0.20310   1.000
    C55     C    0.27304   0.52830   0.34166   1.000
    C56     C    0.33257   0.66808   0.07796   1.000
    C57     C    0.31227   0.83063   0.38220   1.000
    C58     C    0.15936   0.96258   0.25305   1.000
    C59     C    0.14404   0.88804   0.29961   1.000
    C60     C    0.20310   0.79230   0.27199   1.000
    C61     C    0.34166   0.85700   0.27304   1.000
    C62     C    0.07796   0.92138   0.33257   1.000
    C63     C    0.83063   0.31227   0.47489   1.000
    C64     C    0.96258   0.15936   0.62501   1.000
    C65     C    0.88804   0.14404   0.66831   1.000
    C66     C    0.79230   0.20310   0.73261   1.000
    C67     C    0.85700   0.34166   0.52830   1.000
    C68     C    0.92138   0.07796   0.66808   1.000
    C69     C    0.47489   0.38220   0.83063   1.000
    C70     C    0.62501   0.25305   0.96258   1.000
    C71     C    0.66831   0.29961   0.88804   1.000
    C72     C    0.73261   0.27199   0.79230   1.000
    C73     C    0.52830   0.27304   0.85700   1.000
    C74     C    0.66808   0.33257   0.92138   1.000
    C75     C    0.93773   0.86780   0.41937   1.000
    C76     C    0.09064   0.99695   0.28742   1.000
    C77     C    0.17204   0.91743   0.58192   1.000
    C78     C    0.17204   0.91743   0.32862   1.000
    C79     C    0.86780   0.93773   0.77511   1.000
    C80     C    0.99695   0.09064   0.62499   1.000
    C81     C    0.95039   0.10596   0.58169   1.000
    C82     C    0.97801   0.04690   0.51739   1.000
    C83     C    0.97696   0.90834   0.72170   1.000
    C84     C    0.91743   0.17204   0.58192   1.000
    C85     C    0.77511   0.41937   0.86780   1.000
    C86     C    0.62499   0.28742   0.99695   1.000
    C87     C    0.58169   0.36196   0.95039   1.000
    C88     C    0.51739   0.45770   0.97801   1.000
    C89     C    0.72170   0.39300   0.97696   1.000
    C90     C    0.58192   0.32862   0.91743   1.000
    C91     C    0.41937   0.77511   0.93773   1.000
    C92     C    0.28742   0.62499   0.09064   1.000
    C93     C    0.36196   0.58169   0.10596   1.000
    C94     C    0.45770   0.51739   0.04690   1.000
    C95     C    0.39300   0.72170   0.90834   1.000
    C96     C    0.32862   0.58192   0.17204   1.000
    C97     C    0.77511   0.93773   0.41937   1.000
    C98     C    0.62499   0.09064   0.28742   1.000
    C99     C    0.58169   0.10596   0.36196   1.000
    C100    C    0.51739   0.04690   0.45770   1.000
    C101    C    0.72170   0.90834   0.39300   1.000
    C102    C    0.58192   0.17204   0.32862   1.000
    C103    C    0.41937   0.86780   0.77511   1.000
    C104    C    0.28742   0.99695   0.62499   1.000
    C105    C    0.36196   0.95039   0.58169   1.000
    C106    C    0.45770   0.97801   0.51739   1.000
    C107    C    0.39300   0.97696   0.72170   1.000
    C108    C    0.32862   0.91743   0.58192   1.000
    C109    C    0.93773   0.77511   0.86780   1.000
    C110    C    0.09064   0.62499   0.99695   1.000
    C111    C    0.10596   0.58169   0.95039   1.000
    C112    C    0.04690   0.51739   0.97801   1.000
    C113    C    0.90834   0.72170   0.97696   1.000
    C114    C    0.17204   0.58192   0.91743   1.000
    C115    C    0.86780   0.41937   0.93773   1.000
    C116    C    0.99695   0.28742   0.09064   1.000
    C117    C    0.95039   0.36196   0.10596   1.000
    C118    C    0.97801   0.45770   0.04690   1.000
    C119    C    0.97696   0.39300   0.90834   1.000
    C120    C    0.91743   0.32862   0.17204   1.000
    C121    C    0.86780   0.77511   0.41937   1.000
    C122    C    0.99695   0.62499   0.28742   1.000
    C123    C    0.95039   0.58169   0.36196   1.000
    C124    C    0.97801   0.51739   0.45770   1.000
    C125    C    0.97696   0.72170   0.39300   1.000
    C126    C    0.91743   0.58192   0.32862   1.000
    C127    C    0.93773   0.41937   0.77511   1.000
    C128    C    0.09064   0.28742   0.62499   1.000
    C129    C    0.10596   0.36196   0.58169   1.000
    C130    C    0.04690   0.45770   0.51739   1.000
    C131    C    0.90834   0.39300   0.72170   1.000
    C132    C    0.17204   0.32862   0.58192   1.000
    C133    C    0.41937   0.93773   0.86780   1.000
    C134    C    0.28742   0.09064   0.99695   1.000
    C135    C    0.36196   0.10596   0.95039   1.000
    C136    C    0.45770   0.04690   0.97801   1.000
    C137    C    0.39300   0.90834   0.97696   1.000
    C138    C    0.32862   0.17204   0.91743   1.000
    C139    C    0.77511   0.86780   0.93773   1.000
    C140    C    0.62499   0.99695   0.09064   1.000
    C141    C    0.58169   0.95039   0.10596   1.000
    C142    C    0.51739   0.97801   0.04690   1.000
    C143    C    0.72170   0.97696   0.90834   1.000
    C144    C    0.58192   0.91743   0.17204   1.000
    C145    C    0.93773   0.86780   0.77511   1.000
    C146    C    0.09064   0.99695   0.62499   1.000
    C147    C    0.10596   0.95039   0.58169   1.000
    C148    C    0.04690   0.97801   0.51739   1.000
    C149    C    0.90834   0.97696   0.72170   1.000
    C150    C    0.86780   0.93773   0.41937   1.000
    C151    C    0.99695   0.09064   0.28742   1.000
    C152    C    0.95039   0.10596   0.36196   1.000
    C153    C    0.97801   0.04690   0.45770   1.000
    C154    C    0.97696   0.90834   0.39300   1.000
    C155    C    0.91743   0.17204   0.32862   1.000
    C156    C    0.77511   0.41937   0.93773   1.000
    C157    C    0.62499   0.28742   0.09064   1.000
    C158    C    0.58169   0.36196   0.10596   1.000
    C159    C    0.51739   0.45770   0.04690   1.000
    C160    C    0.72170   0.39300   0.90834   1.000
    C161    C    0.58192   0.32862   0.17204   1.000
    C162    C    0.41937   0.77511   0.86780   1.000
    C163    C    0.28742   0.62499   0.99695   1.000
    C164    C    0.36196   0.58169   0.95039   1.000
    C165    C    0.45770   0.51739   0.97801   1.000
    C166    C    0.39300   0.72170   0.97696   1.000
    C167    C    0.32862   0.58192   0.91743   1.000
    C168    C    0.77511   0.93773   0.86780   1.000
    C169    C    0.62499   0.09064   0.99695   1.000
    C170    C    0.58169   0.10596   0.95039   1.000
    C171    C    0.51739   0.04690   0.97801   1.000
    C172    C    0.72170   0.90834   0.97696   1.000
    C173    C    0.58192   0.17204   0.91743   1.000
    C174    C    0.41937   0.86780   0.93773   1.000
    C175    C    0.28742   0.99695   0.09064   1.000
    C176    C    0.36196   0.95039   0.10596   1.000
    C177    C    0.45770   0.97801   0.04690   1.000
    C178    C    0.39300   0.97696   0.90834   1.000
    C179    C    0.32862   0.91743   0.17204   1.000
    C180    C    0.93773   0.77511   0.41937   1.000
    C181    C    0.09064   0.62499   0.28742   1.000
    C182    C    0.10596   0.58169   0.36196   1.000
    C183    C    0.04690   0.51739   0.45770   1.000
    C184    C    0.90834   0.72170   0.39300   1.000
    C185    C    0.17204   0.58192   0.32862   1.000
    C186    C    0.86780   0.41937   0.77511   1.000
    C187    C    0.99695   0.28742   0.62499   1.000
    C188    C    0.95039   0.36196   0.58169   1.000
    C189    C    0.97801   0.45770   0.51739   1.000
    C190    C    0.97696   0.39300   0.72170   1.000
    C191    C    0.91743   0.32862   0.58192   1.000
    C192    C    0.86780   0.77511   0.93773   1.000
    C193    C    0.99695   0.62499   0.09064   1.000
    C194    C    0.95039   0.58169   0.10596   1.000
    C195    C    0.97801   0.51739   0.04690   1.000
    C196    C    0.97696   0.72170   0.90834   1.000
    C197    C    0.91743   0.58192   0.17204   1.000
    C198    C    0.93773   0.41937   0.86780   1.000
    C199    C    0.09064   0.28742   0.99695   1.000
    C200    C    0.10596   0.36196   0.95039   1.000
    C201    C    0.04690   0.45770   0.97801   1.000
    C202    C    0.90834   0.39300   0.97696   1.000
    C203    C    0.17204   0.32862   0.91743   1.000
    C204    C    0.41937   0.93773   0.77511   1.000
    C205    C    0.28742   0.09064   0.62499   1.000
    C206    C    0.36196   0.10596   0.58169   1.000
    C207    C    0.45770   0.04690   0.51739   1.000
    C208    C    0.39300   0.90834   0.72170   1.000
    C209    C    0.32862   0.17204   0.58192   1.000
    C210    C    0.77511   0.86780   0.41937   1.000
    C211    C    0.62499   0.99695   0.28742   1.000
    C212    C    0.58169   0.95039   0.36196   1.000
    C213    C    0.51739   0.97801   0.45770   1.000
    C214    C    0.72170   0.97696   0.39300   1.000
    C215    C    0.58192   0.91743   0.32862   1.000
    C216    C    0.31227   0.38220   0.83063   1.000
    C217    C    0.15936   0.25305   0.96258   1.000
    C218    C    0.14404   0.29961   0.88804   1.000
    C219    C    0.20310   0.27199   0.79230   1.000
    C220    C    0.34166   0.27304   0.85700   1.000
    C221    C    0.07796   0.33257   0.92138   1.000
    C222    C    0.38220   0.31227   0.47489   1.000
    C223    C    0.25305   0.15936   0.62501   1.000
    C224    C    0.29961   0.14404   0.66831   1.000
    C225    C    0.27199   0.20310   0.73261   1.000
    C226    C    0.27304   0.34166   0.52830   1.000
    C227    C    0.33257   0.07796   0.66808   1.000
    C228    C    0.47489   0.83063   0.38220   1.000
    C229    C    0.62501   0.96258   0.25305   1.000
    C230    C    0.66831   0.88804   0.29961   1.000
    C231    C    0.73261   0.79230   0.27199   1.000
    C232    C    0.52830   0.85700   0.27304   1.000
    C233    C    0.66808   0.92138   0.33257   1.000
    C234    C    0.83063   0.47489   0.31227   1.000
    C235    C    0.96258   0.62501   0.15936   1.000
    C236    C    0.88804   0.66831   0.14404   1.000
    C237    C    0.79230   0.73261   0.20310   1.000
    C238    C    0.85700   0.52830   0.34166   1.000
    C239    C    0.92138   0.66808   0.07796   1.000
    C240    C    0.47489   0.31227   0.83063   1.000
    C241    C    0.62501   0.15936   0.96258   1.000
    C242    C    0.66831   0.14404   0.88804   1.000
    C243    C    0.73261   0.20310   0.79230   1.000
    C244    C    0.52830   0.34166   0.85700   1.000
    C245    C    0.66808   0.07796   0.92138   1.000
    C246    C    0.83063   0.38220   0.47489   1.000
    C247    C    0.96258   0.25305   0.62501   1.000
    C248    C    0.88804   0.29961   0.66831   1.000
    C249    C    0.79230   0.27199   0.73261   1.000
    C250    C    0.85700   0.27304   0.52830   1.000
    C251    C    0.92138   0.33257   0.66808   1.000
    C252    C    0.31227   0.47489   0.38220   1.000
    C253    C    0.15936   0.62501   0.25305   1.000
    C254    C    0.14404   0.66831   0.29961   1.000
    C255    C    0.20310   0.73261   0.27199   1.000
    C256    C    0.34166   0.52830   0.27304   1.000
    C257    C    0.07796   0.66808   0.33257   1.000
    C258    C    0.38220   0.83063   0.31227   1.000
    C259    C    0.25305   0.96258   0.15936   1.000
    C260    C    0.29961   0.88804   0.14404   1.000
    C261    C    0.27199   0.79230   0.20310   1.000
    C262    C    0.27304   0.85700   0.34166   1.000
    C263    C    0.33257   0.92138   0.07796   1.000
    C264    C    0.38220   0.47489   0.83063   1.000
    C265    C    0.25305   0.62501   0.96258   1.000
    C266    C    0.29961   0.66831   0.88804   1.000
    C267    C    0.27199   0.73261   0.79230   1.000
    C268    C    0.27304   0.52830   0.85700   1.000
    C269    C    0.33257   0.66808   0.92138   1.000
    C270    C    0.31227   0.83063   0.47489   1.000
    C271    C    0.15936   0.96258   0.62501   1.000
    C272    C    0.14404   0.88804   0.66831   1.000
    C273    C    0.20310   0.79230   0.73261   1.000
    C274    C    0.34166   0.85700   0.52830   1.000
    C275    C    0.07796   0.92138   0.66808   1.000
    C276    C    0.83063   0.31227   0.38220   1.000
    C277    C    0.96258   0.15936   0.25305   1.000
    C278    C    0.88804   0.14404   0.29961   1.000
    C279    C    0.79230   0.20310   0.27199   1.000
    C280    C    0.85700   0.34166   0.27304   1.000
    C281    C    0.92138   0.07796   0.33257   1.000
    C282    C    0.47489   0.38220   0.31227   1.000
    C283    C    0.62501   0.25305   0.15936   1.000
    C284    C    0.66831   0.29961   0.14404   1.000
    C285    C    0.73261   0.27199   0.20310   1.000
    C286    C    0.52830   0.27304   0.34166   1.000
    C287    C    0.66808   0.33257   0.07796   1.000
    C288    C    0.35723   0.35723   0.52298   1.000
    C289    C    0.41918   0.41918   0.48908   1.000
    C290    C    0.31762   0.31762   0.57750   1.000
    C291    C    0.28000   0.28000   0.69049   1.000
    C292    C    0.35723   0.35723   0.76256   1.000
    C293    C    0.41918   0.41918   0.67257   1.000
    C294    C    0.31762   0.31762   0.78725   1.000
    C295    C    0.28000   0.28000   0.74951   1.000
    C296    C    0.52298   0.76256   0.35723   1.000
    C297    C    0.48908   0.67257   0.41918   1.000
    C298    C    0.57750   0.78725   0.31762   1.000
    C299    C    0.69049   0.74951   0.28000   1.000
    C300    C    0.76256   0.52298   0.35723   1.000
    C301    C    0.67257   0.48908   0.41918   1.000
    C302    C    0.78725   0.57750   0.31762   1.000
    C303    C    0.74951   0.69049   0.28000   1.000
    C304    C    0.52298   0.35723   0.35723   1.000
    C305    C    0.48908   0.41918   0.41918   1.000
    C306    C    0.57750   0.31762   0.31762   1.000
    C307    C    0.69049   0.28000   0.28000   1.000
    C308    C    0.76256   0.35723   0.35723   1.000
    C309    C    0.67257   0.41918   0.41918   1.000
    C310    C    0.78725   0.31762   0.31762   1.000
    C311    C    0.74951   0.28000   0.28000   1.000
    C312    C    0.35723   0.52298   0.76256   1.000
    C313    C    0.41918   0.48908   0.67257   1.000
    C314    C    0.31762   0.57750   0.78725   1.000
    C315    C    0.28000   0.69049   0.74951   1.000
    C316    C    0.35723   0.76256   0.52298   1.000
    C317    C    0.41918   0.67257   0.48908   1.000
    C318    C    0.31762   0.78725   0.57750   1.000
    C319    C    0.28000   0.74951   0.69049   1.000
    C320    C    0.35723   0.52298   0.35723   1.000
    C321    C    0.41918   0.48908   0.41918   1.000
    C322    C    0.31762   0.57750   0.31762   1.000
    C323    C    0.28000   0.69049   0.28000   1.000
    C324    C    0.35723   0.76256   0.35723   1.000
    C325    C    0.41918   0.67257   0.41918   1.000
    C326    C    0.31762   0.78725   0.31762   1.000
    C327    C    0.28000   0.74951   0.28000   1.000
    C328    C    0.76256   0.35723   0.52298   1.000
    C329    C    0.67257   0.41918   0.48908   1.000
    C330    C    0.78725   0.31762   0.57750   1.000
    C331    C    0.74951   0.28000   0.69049   1.000
    C332    C    0.52298   0.35723   0.76256   1.000
    C333    C    0.48908   0.41918   0.67257   1.000
    C334    C    0.57750   0.31762   0.78725   1.000
    C335    C    0.69049   0.28000   0.74951   1.000
    C336    C    0.89277   0.89277   0.48744   1.000
    C337    C    0.83082   0.83082   0.57743   1.000
    C338    C    0.93238   0.93238   0.46275   1.000
    C339    C    0.97000   0.97000   0.50049   1.000
    C340    C    0.89277   0.89277   0.72702   1.000
    C341    C    0.83082   0.83082   0.76092   1.000
    C342    C    0.93238   0.93238   0.67250   1.000
    C343    C    0.97000   0.97000   0.55951   1.000
    C344    C    0.72702   0.48744   0.89277   1.000
    C345    C    0.76092   0.57743   0.83082   1.000
    C346    C    0.67250   0.46275   0.93238   1.000
    C347    C    0.55951   0.50049   0.97000   1.000
    C348    C    0.48744   0.72702   0.89277   1.000
    C349    C    0.57743   0.76092   0.83082   1.000
    C350    C    0.46275   0.67250   0.93238   1.000
    C351    C    0.50049   0.55951   0.97000   1.000
    C352    C    0.72702   0.89277   0.48744   1.000
    C353    C    0.76092   0.83082   0.57743   1.000
    C354    C    0.67250   0.93238   0.46275   1.000
    C355    C    0.55951   0.97000   0.50049   1.000
    C356    C    0.48744   0.89277   0.72702   1.000
    C357    C    0.57743   0.83082   0.76092   1.000
    C358    C    0.46275   0.93238   0.67250   1.000
    C359    C    0.50049   0.97000   0.55951   1.000
    C360    C    0.89277   0.72702   0.89277   1.000
    C361    C    0.83082   0.76092   0.83082   1.000
    C362    C    0.93238   0.67250   0.93238   1.000
    C363    C    0.97000   0.55951   0.97000   1.000
    C364    C    0.89277   0.48744   0.89277   1.000
    C365    C    0.83082   0.57743   0.83082   1.000
    C366    C    0.93238   0.46275   0.93238   1.000
    C367    C    0.97000   0.50049   0.97000   1.000
    C368    C    0.89277   0.72702   0.48744   1.000
    C369    C    0.83082   0.76092   0.57743   1.000
    C370    C    0.93238   0.67250   0.46275   1.000
    C371    C    0.97000   0.55951   0.50049   1.000
    C372    C    0.89277   0.48744   0.72702   1.000
    C373    C    0.83082   0.57743   0.76092   1.000
    C374    C    0.93238   0.46275   0.67250   1.000
    C375    C    0.97000   0.50049   0.55951   1.000
    C376    C    0.48744   0.89277   0.89277   1.000
    C377    C    0.57743   0.83082   0.83082   1.000
    C378    C    0.46275   0.93238   0.93238   1.000
    C379    C    0.50049   0.97000   0.97000   1.000
    C380    C    0.72702   0.89277   0.89277   1.000
    C381    C    0.76092   0.83082   0.83082   1.000
    C382    C    0.67250   0.93238   0.93238   1.000
    C383    C    0.55951   0.97000   0.97000   1.000
    C384    C    0.44280   0.44280   0.51229   1.000
    C385    C    0.44280   0.44280   0.60211   1.000
    C386    C    0.51229   0.60211   0.44280   1.000
    C387    C    0.60211   0.51229   0.44280   1.000
    C388    C    0.51229   0.44280   0.44280   1.000
    C389    C    0.60211   0.44280   0.44280   1.000
    C390    C    0.44280   0.51229   0.60211   1.000
    C391    C    0.44280   0.60211   0.51229   1.000
    C392    C    0.44280   0.51229   0.44280   1.000
    C393    C    0.44280   0.60211   0.44280   1.000
    C394    C    0.60211   0.44280   0.51229   1.000
    C395    C    0.51229   0.44280   0.60211   1.000
    C396    C    0.80720   0.80720   0.64789   1.000
    C397    C    0.80720   0.80720   0.73771   1.000
    C398    C    0.73771   0.64789   0.80720   1.000
    C399    C    0.64789   0.73771   0.80720   1.000
    C400    C    0.73771   0.80720   0.64789   1.000
    C401    C    0.64789   0.80720   0.73771   1.000
    C402    C    0.80720   0.73771   0.80720   1.000
    C403    C    0.80720   0.64789   0.80720   1.000
    C404    C    0.80720   0.73771   0.64789   1.000
    C405    C    0.80720   0.64789   0.73771   1.000
    C406    C    0.64789   0.80720   0.80720   1.000
    C407    C    0.73771   0.80720   0.80720   1.000
