# CIF file generated by openbabel 2.4.90, see http://openbabel.sf.net
data_I
_chemical_name_common ''
_cell_length_a 62.8399
_cell_length_b 62.8399
_cell_length_c 62.8399
_cell_angle_alpha 60
_cell_angle_beta 60
_cell_angle_gamma 60
_space_group_name_H-M_alt 'P 1'
_space_group_name_Hall 'P 1'
loop_
    _symmetry_equiv_pos_as_xyz
    x,y,z
loop_
    _atom_site_label
    _atom_site_type_symbol
    _atom_site_fract_x
    _atom_site_fract_y
    _atom_site_fract_z
    _atom_site_occupancy
    N0      N    0.55277   0.22204   0.88865   1.000
    N1      N    0.88865   0.22204   0.33655   1.000
    N2      N    0.42906   0.83108   0.42906   1.000
    N3      N    0.88865   0.33655   0.55277   1.000
    N4      N    0.22203   0.55277   0.33655   1.000
    N5      N    0.20501   0.62494   0.96505   1.000
    N6      N    0.42906   0.31080   0.42906   1.000
    N7      N    0.70130   0.17270   0.28584   1.000
    N8      N    0.55277   0.33655   0.22204   1.000
    N9      N    0.88865   0.55277   0.22204   1.000
    N10     N    0.76750   0.29891   0.29891   1.000
    N11     N    0.96505   0.20501   0.20501   1.000
    N12     N    0.38782   0.50809   0.71628   1.000
    N13     N    0.83108   0.42906   0.31080   1.000
    N14     N    0.55826   0.44174   0.44174   1.000
    N15     N    0.50809   0.38782   0.38782   1.000
    N16     N    0.84017   0.28584   0.17270   1.000
    N17     N    0.62494   0.20501   0.20501   1.000
    N18     N    0.83108   0.42906   0.42906   1.000
    N19     N    0.04499   0.04499   0.28495   1.000
    N20     N    0.74191   0.86218   0.86218   1.000
    N21     N    0.07730   0.54870   0.40983   1.000
    N22     N    0.33655   0.88864   0.22204   1.000
    N23     N    0.50809   0.71627   0.38782   1.000
    N24     N    0.84017   0.17270   0.70130   1.000
    N25     N    0.42906   0.31080   0.83108   1.000
    N26     N    0.62494   0.96505   0.20501   1.000
    N27     N    0.17270   0.28584   0.70130   1.000
    N28     N    0.44174   0.44174   0.55826   1.000
    N29     N    0.38782   0.38782   0.50809   1.000
    N30     N    0.55277   0.88865   0.33655   1.000
    N31     N    0.29891   0.29891   0.76750   1.000
    N32     N    0.55826   0.55826   0.44174   1.000
    N33     N    0.42906   0.83108   0.31080   1.000
    N34     N    0.71627   0.38782   0.38782   1.000
    N35     N    0.83108   0.31080   0.42906   1.000
    N36     N    0.88865   0.33655   0.22204   1.000
    N37     N    0.82094   0.82094   0.93920   1.000
    N38     N    0.40983   0.07730   0.54870   1.000
    N39     N    0.17270   0.70130   0.28584   1.000
    N40     N    0.22203   0.88865   0.33655   1.000
    N41     N    0.17270   0.70130   0.84017   1.000
    N42     N    0.38782   0.50809   0.38782   1.000
    N43     N    0.42906   0.42906   0.31080   1.000
    N44     N    0.07730   0.96416   0.40983   1.000
    N45     N    0.96416   0.07730   0.40983   1.000
    N46     N    0.84017   0.17270   0.28584   1.000
    N47     N    0.33655   0.88864   0.55277   1.000
    N48     N    0.96416   0.54870   0.40983   1.000
    N49     N    0.69723   0.36136   0.02797   1.000
    N50     N    0.48250   0.95109   0.61532   1.000
    N51     N    0.36135   0.91345   0.02797   1.000
    N52     N    0.20501   0.20501   0.62494   1.000
    N53     N    0.95109   0.48250   0.61532   1.000
    N54     N    0.61532   0.48250   0.95109   1.000
    N55     N    0.69723   0.91345   0.36136   1.000
    N56     N    0.44174   0.55826   0.44174   1.000
    N57     N    0.91345   0.02797   0.36136   1.000
    N58     N    0.02797   0.36136   0.69723   1.000
    N59     N    0.95109   0.61532   0.48250   1.000
    N60     N    0.17270   0.84017   0.28584   1.000
    N61     N    0.04499   0.62506   0.04499   1.000
    N62     N    0.20501   0.96505   0.62494   1.000
    N63     N    0.62506   0.04499   0.04499   1.000
    N64     N    0.42906   0.42906   0.83108   1.000
    N65     N    0.31080   0.83108   0.42906   1.000
    N66     N    0.62506   0.04499   0.28495   1.000
    N67     N    0.61532   0.95109   0.95109   1.000
    N68     N    0.70130   0.84017   0.17270   1.000
    N69     N    0.20501   0.62494   0.20501   1.000
    N70     N    0.33655   0.22204   0.55277   1.000
    N71     N    0.38782   0.71627   0.38782   1.000
    N72     N    0.33655   0.55277   0.88865   1.000
    N73     N    0.80826   0.69174   0.80826   1.000
    N74     N    0.86218   0.74191   0.86218   1.000
    N75     N    0.69174   0.80826   0.69174   1.000
    N76     N    0.74191   0.86218   0.53373   1.000
    N77     N    0.82094   0.82094   0.41892   1.000
    N78     N    0.40983   0.96416   0.07730   1.000
    N79     N    0.36135   0.91345   0.69723   1.000
    N80     N    0.96505   0.62494   0.20501   1.000
    N81     N    0.71628   0.50809   0.38782   1.000
    N82     N    0.70130   0.28584   0.84017   1.000
    N83     N    0.40983   0.96416   0.54870   1.000
    N84     N    0.63468   0.29891   0.76750   1.000
    N85     N    0.04499   0.28495   0.62506   1.000
    N86     N    0.95109   0.61532   0.95109   1.000
    N87     N    0.20501   0.96505   0.20501   1.000
    N88     N    0.41892   0.82094   0.93920   1.000
    N89     N    0.86218   0.53373   0.74191   1.000
    N90     N    0.40983   0.54870   0.07730   1.000
    N91     N    0.91345   0.36136   0.69723   1.000
    N92     N    0.63468   0.76750   0.29891   1.000
    N93     N    0.38782   0.71627   0.50809   1.000
    N94     N    0.69174   0.80826   0.80826   1.000
    N95     N    0.93920   0.41892   0.82094   1.000
    N96     N    0.95109   0.95109   0.61532   1.000
    N97     N    0.28584   0.70130   0.17270   1.000
    N98     N    0.04499   0.62506   0.28495   1.000
    N99     N    0.54870   0.96416   0.40983   1.000
    N100    N    0.31080   0.42906   0.83108   1.000
    N101    N    0.80826   0.80826   0.69174   1.000
    N102    N    0.29891   0.76750   0.63468   1.000
    N103    N    0.69723   0.02796   0.91345   1.000
    N104    N    0.96505   0.20501   0.62494   1.000
    N105    N    0.28584   0.84017   0.70130   1.000
    N106    N    0.62494   0.20501   0.96505   1.000
    N107    N    0.82094   0.41892   0.93920   1.000
    N108    N    0.86218   0.86218   0.53373   1.000
    N109    N    0.95109   0.95109   0.48250   1.000
    N110    N    0.55277   0.22204   0.33655   1.000
    N111    N    0.86218   0.86218   0.74191   1.000
    N112    N    0.93920   0.82094   0.82094   1.000
    N113    N    0.36135   0.69723   0.91345   1.000
    N114    N    0.02796   0.69723   0.36136   1.000
    N115    N    0.02796   0.36136   0.91345   1.000
    N116    N    0.07730   0.40983   0.54870   1.000
    N117    N    0.96416   0.54870   0.07730   1.000
    N118    N    0.96416   0.40983   0.07730   1.000
    N119    N    0.38782   0.38782   0.71628   1.000
    N120    N    0.29891   0.63468   0.76750   1.000
    N121    N    0.54870   0.07730   0.96416   1.000
    N122    N    0.96416   0.40983   0.54870   1.000
    N123    N    0.54870   0.96416   0.07730   1.000
    N124    N    0.31080   0.42906   0.42906   1.000
    N125    N    0.22203   0.33655   0.88865   1.000
    N126    N    0.91345   0.69723   0.02797   1.000
    N127    N    0.28584   0.17270   0.84017   1.000
    N128    N    0.55277   0.88865   0.22204   1.000
    N129    N    0.55826   0.44174   0.55826   1.000
    N130    N    0.96416   0.07730   0.54870   1.000
    N131    N    0.61532   0.95109   0.48250   1.000
    N132    N    0.07730   0.96416   0.54870   1.000
    N133    N    0.48250   0.95109   0.95109   1.000
    N134    N    0.82094   0.93920   0.82094   1.000
    N135    N    0.28495   0.04499   0.04499   1.000
    N136    N    0.02796   0.91345   0.36136   1.000
    N137    N    0.54870   0.40983   0.96416   1.000
    N138    N    0.69723   0.02796   0.36136   1.000
    N139    N    0.91345   0.36136   0.02797   1.000
    N140    N    0.82094   0.93920   0.41892   1.000
    N141    N    0.54870   0.40983   0.07730   1.000
    N142    N    0.69723   0.91345   0.02797   1.000
    N143    N    0.36135   0.69723   0.02797   1.000
    N144    N    0.20501   0.20501   0.96505   1.000
    N145    N    0.88864   0.55277   0.33655   1.000
    N146    N    0.41892   0.82094   0.82094   1.000
    N147    N    0.53372   0.86218   0.86218   1.000
    N148    N    0.70130   0.84017   0.28584   1.000
    N149    N    0.17270   0.28584   0.84017   1.000
    N150    N    0.70130   0.28584   0.17270   1.000
    N151    N    0.40983   0.07730   0.96416   1.000
    N152    N    0.41892   0.93920   0.82094   1.000
    N153    N    0.04499   0.04499   0.62506   1.000
    N154    N    0.91345   0.02796   0.69723   1.000
    N155    N    0.07730   0.54870   0.96416   1.000
    N156    N    0.28584   0.17270   0.70130   1.000
    N157    N    0.29891   0.29891   0.63468   1.000
    N158    N    0.22203   0.33655   0.55277   1.000
    N159    N    0.33655   0.22204   0.88865   1.000
    N160    N    0.04499   0.28495   0.04499   1.000
    N161    N    0.29891   0.63468   0.29891   1.000
    N162    N    0.54870   0.07730   0.40983   1.000
    N163    N    0.28584   0.84017   0.17270   1.000
    N164    N    0.63468   0.29891   0.29891   1.000
    N165    N    0.70130   0.17270   0.84017   1.000
    N166    N    0.33655   0.55277   0.22204   1.000
    N167    N    0.76750   0.29891   0.63468   1.000
    N168    N    0.86218   0.53373   0.86218   1.000
    N169    N    0.29891   0.76750   0.29891   1.000
    N170    N    0.71627   0.38782   0.50809   1.000
    N171    N    0.86218   0.74191   0.53373   1.000
    N172    N    0.62506   0.28495   0.04499   1.000
    N173    N    0.36135   0.02797   0.69723   1.000
    N174    N    0.22204   0.55277   0.88865   1.000
    N175    N    0.22204   0.88864   0.55277   1.000
    N176    N    0.53373   0.86218   0.74191   1.000
    N177    N    0.69174   0.69174   0.80826   1.000
    N178    N    0.84017   0.70130   0.28584   1.000
    N179    N    0.17270   0.84017   0.70130   1.000
    N180    N    0.40983   0.54870   0.96416   1.000
    N181    N    0.69723   0.36135   0.91345   1.000
    N182    N    0.50809   0.38782   0.71628   1.000
    N183    N    0.02797   0.91345   0.69723   1.000
    N184    N    0.44174   0.55826   0.55826   1.000
    N185    N    0.84017   0.70130   0.17270   1.000
    N186    N    0.95109   0.48250   0.95109   1.000
    N187    N    0.28495   0.62506   0.04499   1.000
    N188    N    0.48250   0.61532   0.95109   1.000
    N189    N    0.76750   0.63468   0.29891   1.000
    N190    N    0.93920   0.82094   0.41892   1.000
    N191    N    0.91345   0.69723   0.36136   1.000
    N192    N    0.28584   0.70130   0.84017   1.000
    N193    N    0.28495   0.04499   0.62506   1.000
    N194    N    0.55277   0.33655   0.88865   1.000
    N195    N    0.02796   0.69723   0.91345   1.000
    N196    N    0.88865   0.22203   0.55277   1.000
    N197    N    0.36136   0.02796   0.91345   1.000
    N198    N    0.74191   0.53373   0.86218   1.000
    N199    N    0.80826   0.69174   0.69174   1.000
    N200    N    0.07730   0.40983   0.96416   1.000
    N201    N    0.84017   0.28584   0.70130   1.000
    N202    N    0.82094   0.41892   0.82094   1.000
    N203    N    0.53373   0.74191   0.86218   1.000
    Zr204   Zr   0.31026   0.62500   0.12500   1.000
    O205    O    0.26651   0.62498   0.15644   1.000
    O206    O    0.32197   0.59420   0.16420   1.000
    O207    O    0.30059   0.65703   0.14352   1.000
    O208    O    0.35113   0.59297   0.10648   1.000
    O209    O    0.33037   0.65580   0.08580   1.000
    O210    O    0.29793   0.62502   0.09356   1.000
    Zr211   Zr   0.12500   0.31026   0.62500   1.000
    O212    O    0.15644   0.26651   0.62498   1.000
    O213    O    0.08580   0.33037   0.65580   1.000
    O214    O    0.14352   0.30059   0.65703   1.000
    O215    O    0.09356   0.29793   0.62502   1.000
    O216    O    0.10648   0.35113   0.59297   1.000
    O217    O    0.16420   0.32197   0.59420   1.000
    Zr218   Zr   0.51783   0.33065   0.82087   1.000
    O219    O    0.48200   0.37117   0.82591   1.000
    O220    O    0.53063   0.28581   0.84893   1.000
    O221    O    0.56562   0.31826   0.79785   1.000
    O222    O    0.51587   0.35352   0.77710   1.000
    O223    O    0.48200   0.32092   0.82591   1.000
    O224    O    0.53063   0.33464   0.84893   1.000
    Zr225   Zr   0.79581   0.61256   0.79581   1.000
    O226    O    0.82318   0.58132   0.82318   1.000
    O227    O    0.77233   0.58132   0.82318   1.000
    O228    O    0.80189   0.64386   0.75236   1.000
    O229    O    0.80189   0.64386   0.80189   1.000
    O230    O    0.75236   0.64386   0.80189   1.000
    O231    O    0.82318   0.58132   0.77233   1.000
    Zr232   Zr   0.82086   0.33065   0.51783   1.000
    O233    O    0.82591   0.32092   0.48200   1.000
    O234    O    0.77710   0.35352   0.51587   1.000
    O235    O    0.79785   0.31826   0.56562   1.000
    O236    O    0.82591   0.37117   0.48200   1.000
    O237    O    0.84893   0.33464   0.53063   1.000
    O238    O    0.84893   0.28581   0.53063   1.000
    Zr239   Zr   0.93974   0.12500   0.62500   1.000
    O240    O    0.95207   0.15644   0.62498   1.000
    O241    O    0.94941   0.10648   0.59297   1.000
    O242    O    0.92803   0.08580   0.65580   1.000
    O243    O    0.91963   0.16420   0.59420   1.000
    O244    O    0.98349   0.09356   0.62502   1.000
    O245    O    0.89887   0.14352   0.65703   1.000
    Zr246   Zr   0.62500   0.12500   0.31026   1.000
    O247    O    0.62498   0.15644   0.26651   1.000
    O248    O    0.65703   0.14352   0.30059   1.000
    O249    O    0.65580   0.08580   0.33037   1.000
    O250    O    0.59297   0.10648   0.35113   1.000
    O251    O    0.62502   0.09356   0.29793   1.000
    O252    O    0.59420   0.16420   0.32197   1.000
    Zr253   Zr   0.63744   0.45419   0.45419   1.000
    O254    O    0.66868   0.42682   0.42682   1.000
    O255    O    0.66868   0.42682   0.47767   1.000
    O256    O    0.60614   0.44811   0.44811   1.000
    O257    O    0.60614   0.49764   0.44811   1.000
    O258    O    0.60614   0.44811   0.49764   1.000
    O259    O    0.66868   0.47767   0.42682   1.000
    Zr260   Zr   0.82086   0.51783   0.33065   1.000
    O261    O    0.79785   0.56562   0.31826   1.000
    O262    O    0.82591   0.48200   0.37117   1.000
    O263    O    0.84893   0.53063   0.28581   1.000
    O264    O    0.82591   0.48200   0.32092   1.000
    O265    O    0.84893   0.53063   0.33464   1.000
    O266    O    0.77710   0.51587   0.35352   1.000
    Zr267   Zr   0.25162   0.74838   0.74838   1.000
    O268    O    0.21772   0.73075   0.78536   1.000
    O269    O    0.27174   0.75450   0.70201   1.000
    O270    O    0.27174   0.70201   0.75450   1.000
    O271    O    0.26618   0.73075   0.78536   1.000
    O272    O    0.26618   0.78536   0.73075   1.000
    O273    O    0.21772   0.78536   0.73075   1.000
    Zr274   Zr   0.45419   0.45419   0.45419   1.000
    O275    O    0.42682   0.47767   0.42682   1.000
    O276    O    0.47767   0.42682   0.42682   1.000
    O277    O    0.42682   0.42682   0.47767   1.000
    O278    O    0.44811   0.44811   0.49764   1.000
    O279    O    0.49764   0.44811   0.44811   1.000
    O280    O    0.44811   0.49764   0.44811   1.000
    Zr281   Zr   0.93974   0.31026   0.12500   1.000
    O282    O    0.92803   0.33037   0.08580   1.000
    O283    O    0.95207   0.26651   0.15644   1.000
    O284    O    0.89887   0.30059   0.14352   1.000
    O285    O    0.98349   0.29793   0.09356   1.000
    O286    O    0.94941   0.35113   0.10648   1.000
    O287    O    0.91963   0.32197   0.16420   1.000
    Zr288   Zr   0.51783   0.33065   0.33065   1.000
    O289    O    0.56562   0.31826   0.31826   1.000
    O290    O    0.48200   0.32092   0.37117   1.000
    O291    O    0.53063   0.28581   0.33464   1.000
    O292    O    0.48200   0.37117   0.32092   1.000
    O293    O    0.53063   0.33464   0.28581   1.000
    O294    O    0.51587   0.35352   0.35352   1.000
    Zr295   Zr   0.82086   0.33065   0.33065   1.000
    O296    O    0.84893   0.28581   0.33464   1.000
    O297    O    0.79785   0.31826   0.31826   1.000
    O298    O    0.77710   0.35352   0.35352   1.000
    O299    O    0.82591   0.32092   0.37117   1.000
    O300    O    0.84893   0.33464   0.28581   1.000
    O301    O    0.82591   0.37117   0.32092   1.000
    Zr302   Zr   0.12500   0.62500   0.93974   1.000
    O303    O    0.15644   0.62498   0.95207   1.000
    O304    O    0.08580   0.65580   0.92803   1.000
    O305    O    0.09356   0.62502   0.98349   1.000
    O306    O    0.16420   0.59420   0.91963   1.000
    O307    O    0.10648   0.59297   0.94941   1.000
    O308    O    0.14352   0.65703   0.89887   1.000
    Zr309   Zr   0.33065   0.51783   0.82087   1.000
    O310    O    0.32092   0.48200   0.82591   1.000
    O311    O    0.28581   0.53063   0.84893   1.000
    O312    O    0.33464   0.53063   0.84893   1.000
    O313    O    0.35352   0.51587   0.77710   1.000
    O314    O    0.37117   0.48200   0.82591   1.000
    O315    O    0.31826   0.56562   0.79785   1.000
    Zr316   Zr   0.74838   0.74838   0.25162   1.000
    O317    O    0.78536   0.73075   0.26618   1.000
    O318    O    0.73075   0.78536   0.21772   1.000
    O319    O    0.73075   0.78536   0.26618   1.000
    O320    O    0.78536   0.73075   0.21772   1.000
    O321    O    0.70201   0.75450   0.27174   1.000
    O322    O    0.75450   0.70201   0.27174   1.000
    Zr323   Zr   0.31026   0.12500   0.93974   1.000
    O324    O    0.30059   0.14352   0.89887   1.000
    O325    O    0.35113   0.10648   0.94941   1.000
    O326    O    0.32197   0.16420   0.91963   1.000
    O327    O    0.26651   0.15644   0.95207   1.000
    O328    O    0.33037   0.08580   0.92803   1.000
    O329    O    0.29793   0.09356   0.98349   1.000
    Zr330   Zr   0.33065   0.33065   0.51783   1.000
    O331    O    0.33464   0.28581   0.53063   1.000
    O332    O    0.28581   0.33464   0.53063   1.000
    O333    O    0.31826   0.31826   0.56562   1.000
    O334    O    0.37117   0.32092   0.48200   1.000
    O335    O    0.35352   0.35352   0.51587   1.000
    O336    O    0.32092   0.37117   0.48200   1.000
    Zr337   Zr   0.33065   0.33065   0.82087   1.000
    O338    O    0.28581   0.33464   0.84893   1.000
    O339    O    0.32092   0.37117   0.82591   1.000
    O340    O    0.33464   0.28581   0.84893   1.000
    O341    O    0.31826   0.31826   0.79785   1.000
    O342    O    0.35352   0.35352   0.77710   1.000
    O343    O    0.37117   0.32092   0.82591   1.000
    Zr344   Zr   0.62500   0.31026   0.93974   1.000
    O345    O    0.62498   0.26651   0.95207   1.000
    O346    O    0.65580   0.33037   0.92803   1.000
    O347    O    0.65703   0.30059   0.89887   1.000
    O348    O    0.59297   0.35113   0.94941   1.000
    O349    O    0.59420   0.32197   0.91963   1.000
    O350    O    0.62502   0.29793   0.98349   1.000
    Zr351   Zr   0.91935   0.42914   0.73217   1.000
    O352    O    0.96419   0.40107   0.71937   1.000
    O353    O    0.91536   0.40107   0.71937   1.000
    O354    O    0.92908   0.42409   0.76800   1.000
    O355    O    0.89648   0.47290   0.73413   1.000
    O356    O    0.93174   0.45215   0.68438   1.000
    O357    O    0.87883   0.42409   0.76800   1.000
    Zr358   Zr   0.31026   0.93974   0.12500   1.000
    O359    O    0.35113   0.94941   0.10648   1.000
    O360    O    0.33037   0.92803   0.08580   1.000
    O361    O    0.29793   0.98349   0.09356   1.000
    O362    O    0.32197   0.91963   0.16420   1.000
    O363    O    0.26651   0.95207   0.15644   1.000
    O364    O    0.30059   0.89887   0.14352   1.000
    Zr365   Zr   0.93974   0.62500   0.31026   1.000
    O366    O    0.95207   0.62498   0.26651   1.000
    O367    O    0.89887   0.65703   0.30059   1.000
    O368    O    0.92803   0.65580   0.33037   1.000
    O369    O    0.98349   0.62502   0.29793   1.000
    O370    O    0.91963   0.59420   0.32197   1.000
    O371    O    0.94941   0.59297   0.35113   1.000
    Zr372   Zr   0.93974   0.12500   0.31026   1.000
    O373    O    0.95207   0.15644   0.26651   1.000
    O374    O    0.98349   0.09356   0.29793   1.000
    O375    O    0.91963   0.16420   0.32197   1.000
    O376    O    0.89887   0.14352   0.30059   1.000
    O377    O    0.94941   0.10648   0.35113   1.000
    O378    O    0.92803   0.08580   0.33037   1.000
    Zr379   Zr   0.51783   0.82087   0.33065   1.000
    O380    O    0.53063   0.84893   0.33464   1.000
    O381    O    0.51587   0.77710   0.35352   1.000
    O382    O    0.48200   0.82591   0.37117   1.000
    O383    O    0.53063   0.84893   0.28581   1.000
    O384    O    0.56562   0.79785   0.31826   1.000
    O385    O    0.48200   0.82591   0.32092   1.000
    Zr386   Zr   0.31026   0.12500   0.62500   1.000
    O387    O    0.29793   0.09356   0.62502   1.000
    O388    O    0.35113   0.10648   0.59297   1.000
    O389    O    0.26651   0.15644   0.62498   1.000
    O390    O    0.30059   0.14352   0.65703   1.000
    O391    O    0.33037   0.08580   0.65580   1.000
    O392    O    0.32197   0.16420   0.59420   1.000
    Zr393   Zr   0.73217   0.91935   0.91935   1.000
    O394    O    0.71937   0.91536   0.96419   1.000
    O395    O    0.71937   0.96419   0.91536   1.000
    O396    O    0.76800   0.87883   0.92908   1.000
    O397    O    0.76800   0.92908   0.87883   1.000
    O398    O    0.73413   0.89648   0.89648   1.000
    O399    O    0.68438   0.93174   0.93174   1.000
    Zr400   Zr   0.25162   0.74838   0.25162   1.000
    O401    O    0.21772   0.78536   0.26618   1.000
    O402    O    0.27174   0.75450   0.27174   1.000
    O403    O    0.27174   0.70201   0.27174   1.000
    O404    O    0.26618   0.78536   0.21772   1.000
    O405    O    0.21772   0.73075   0.26618   1.000
    O406    O    0.26618   0.73075   0.21772   1.000
    Zr407   Zr   0.73217   0.91935   0.42914   1.000
    O408    O    0.71937   0.91536   0.40107   1.000
    O409    O    0.76800   0.87883   0.42409   1.000
    O410    O    0.76800   0.92908   0.42409   1.000
    O411    O    0.71937   0.96419   0.40107   1.000
    O412    O    0.68438   0.93174   0.45215   1.000
    O413    O    0.73413   0.89648   0.47290   1.000
    Zr414   Zr   0.42913   0.91935   0.73217   1.000
    O415    O    0.42409   0.92908   0.76800   1.000
    O416    O    0.45215   0.93174   0.68438   1.000
    O417    O    0.40107   0.91536   0.71937   1.000
    O418    O    0.47290   0.89648   0.73413   1.000
    O419    O    0.42409   0.87883   0.76800   1.000
    O420    O    0.40107   0.96419   0.71937   1.000
    Zr421   Zr   0.25162   0.25162   0.74838   1.000
    O422    O    0.26618   0.21772   0.78536   1.000
    O423    O    0.21772   0.26618   0.78536   1.000
    O424    O    0.27174   0.27174   0.70201   1.000
    O425    O    0.21772   0.26618   0.73075   1.000
    O426    O    0.26618   0.21772   0.73075   1.000
    O427    O    0.27174   0.27174   0.75450   1.000
    Zr428   Zr   0.99838   0.50162   0.50162   1.000
    O429    O    0.03228   0.51925   0.46464   1.000
    O430    O    0.03228   0.46464   0.51925   1.000
    O431    O    0.98382   0.51925   0.46464   1.000
    O432    O    0.97826   0.54799   0.49550   1.000
    O433    O    0.98382   0.46464   0.51925   1.000
    O434    O    0.97826   0.49550   0.54799   1.000
    Zr435   Zr   0.62500   0.93974   0.31026   1.000
    O436    O    0.59297   0.94941   0.35113   1.000
    O437    O    0.65703   0.89887   0.30059   1.000
    O438    O    0.62498   0.95207   0.26651   1.000
    O439    O    0.65580   0.92803   0.33037   1.000
    O440    O    0.62502   0.98349   0.29793   1.000
    O441    O    0.59420   0.91963   0.32197   1.000
    Zr442   Zr   0.62500   0.93974   0.12500   1.000
    O443    O    0.65580   0.92803   0.08580   1.000
    O444    O    0.62498   0.95207   0.15644   1.000
    O445    O    0.65703   0.89887   0.14352   1.000
    O446    O    0.62502   0.98349   0.09356   1.000
    O447    O    0.59420   0.91963   0.16420   1.000
    O448    O    0.59297   0.94941   0.10648   1.000
    Zr449   Zr   0.50162   0.99838   0.50162   1.000
    O450    O    0.49550   0.97826   0.54799   1.000
    O451    O    0.46464   0.98382   0.51925   1.000
    O452    O    0.51925   0.03228   0.46464   1.000
    O453    O    0.51925   0.98382   0.46464   1.000
    O454    O    0.46464   0.03228   0.51925   1.000
    O455    O    0.54799   0.97826   0.49550   1.000
    Zr456   Zr   0.12500   0.93974   0.62500   1.000
    O457    O    0.15644   0.95207   0.62498   1.000
    O458    O    0.10648   0.94941   0.59297   1.000
    O459    O    0.09356   0.98349   0.62502   1.000
    O460    O    0.16420   0.91963   0.59420   1.000
    O461    O    0.14352   0.89887   0.65703   1.000
    O462    O    0.08580   0.92803   0.65580   1.000
    Zr463   Zr   0.91935   0.42914   0.91935   1.000
    O464    O    0.96419   0.40107   0.91536   1.000
    O465    O    0.93174   0.45215   0.93174   1.000
    O466    O    0.92908   0.42409   0.87883   1.000
    O467    O    0.87883   0.42409   0.92908   1.000
    O468    O    0.89648   0.47290   0.89648   1.000
    O469    O    0.91536   0.40107   0.96419   1.000
    Zr470   Zr   0.50162   0.99838   0.99838   1.000
    O471    O    0.46464   0.98382   0.03228   1.000
    O472    O    0.51925   0.03228   0.98382   1.000
    O473    O    0.46464   0.03228   0.98382   1.000
    O474    O    0.51925   0.98382   0.03228   1.000
    O475    O    0.54799   0.97826   0.97826   1.000
    O476    O    0.49550   0.97826   0.97826   1.000
    Zr477   Zr   0.45419   0.63744   0.45419   1.000
    O478    O    0.47767   0.66868   0.42682   1.000
    O479    O    0.42682   0.66868   0.47767   1.000
    O480    O    0.44811   0.60614   0.44811   1.000
    O481    O    0.42682   0.66868   0.42682   1.000
    O482    O    0.44811   0.60614   0.49764   1.000
    O483    O    0.49764   0.60614   0.44811   1.000
    Zr484   Zr   0.91935   0.73217   0.91935   1.000
    O485    O    0.91536   0.71937   0.96419   1.000
    O486    O    0.87883   0.76800   0.92908   1.000
    O487    O    0.96419   0.71937   0.91536   1.000
    O488    O    0.92908   0.76800   0.87883   1.000
    O489    O    0.93174   0.68438   0.93174   1.000
    O490    O    0.89648   0.73413   0.89648   1.000
    Zr491   Zr   0.33065   0.82087   0.33065   1.000
    O492    O    0.33464   0.84893   0.28581   1.000
    O493    O    0.37117   0.82591   0.32092   1.000
    O494    O    0.32092   0.82591   0.37117   1.000
    O495    O    0.35352   0.77710   0.35352   1.000
    O496    O    0.28581   0.84893   0.33464   1.000
    O497    O    0.31826   0.79785   0.31826   1.000
    Zr498   Zr   0.79581   0.79581   0.61256   1.000
    O499    O    0.80189   0.80189   0.64386   1.000
    O500    O    0.82318   0.82318   0.58132   1.000
    O501    O    0.75236   0.80189   0.64386   1.000
    O502    O    0.80189   0.75236   0.64386   1.000
    O503    O    0.82318   0.77233   0.58132   1.000
    O504    O    0.77233   0.82318   0.58132   1.000
    Zr505   Zr   0.74838   0.25162   0.74838   1.000
    O506    O    0.73075   0.26618   0.78536   1.000
    O507    O    0.78536   0.26618   0.73075   1.000
    O508    O    0.73075   0.21772   0.78536   1.000
    O509    O    0.78536   0.21772   0.73075   1.000
    O510    O    0.70201   0.27174   0.75450   1.000
    O511    O    0.75450   0.27174   0.70201   1.000
    Zr512   Zr   0.93974   0.62500   0.12500   1.000
    O513    O    0.98349   0.62502   0.09356   1.000
    O514    O    0.94941   0.59297   0.10648   1.000
    O515    O    0.91963   0.59420   0.16420   1.000
    O516    O    0.89887   0.65703   0.14352   1.000
    O517    O    0.92803   0.65580   0.08580   1.000
    O518    O    0.95207   0.62498   0.15644   1.000
    Zr519   Zr   0.62500   0.31026   0.12500   1.000
    O520    O    0.59297   0.35113   0.10648   1.000
    O521    O    0.62502   0.29793   0.09356   1.000
    O522    O    0.65703   0.30059   0.14352   1.000
    O523    O    0.65580   0.33037   0.08580   1.000
    O524    O    0.59420   0.32197   0.16420   1.000
    O525    O    0.62498   0.26651   0.15644   1.000
    Zr526   Zr   0.50162   0.50162   0.99838   1.000
    O527    O    0.49550   0.54799   0.97826   1.000
    O528    O    0.54799   0.49550   0.97826   1.000
    O529    O    0.51925   0.46464   0.03228   1.000
    O530    O    0.46464   0.51925   0.03228   1.000
    O531    O    0.46464   0.51925   0.98382   1.000
    O532    O    0.51925   0.46464   0.98382   1.000
    Zr533   Zr   0.33065   0.51783   0.33065   1.000
    O534    O    0.28581   0.53063   0.33464   1.000
    O535    O    0.35352   0.51587   0.35352   1.000
    O536    O    0.37117   0.48200   0.32092   1.000
    O537    O    0.31826   0.56562   0.31826   1.000
    O538    O    0.32092   0.48200   0.37117   1.000
    O539    O    0.33464   0.53063   0.28581   1.000
    Zr540   Zr   0.12500   0.93974   0.31026   1.000
    O541    O    0.15644   0.95207   0.26651   1.000
    O542    O    0.09356   0.98349   0.29793   1.000
    O543    O    0.16420   0.91963   0.32197   1.000
    O544    O    0.08580   0.92803   0.33037   1.000
    O545    O    0.10648   0.94941   0.35113   1.000
    O546    O    0.14352   0.89887   0.30059   1.000
    Zr547   Zr   0.91935   0.91935   0.73217   1.000
    O548    O    0.92908   0.87883   0.76800   1.000
    O549    O    0.91536   0.96419   0.71937   1.000
    O550    O    0.96419   0.91536   0.71937   1.000
    O551    O    0.89648   0.89648   0.73413   1.000
    O552    O    0.93174   0.93174   0.68438   1.000
    O553    O    0.87883   0.92908   0.76800   1.000
    Zr554   Zr   0.12500   0.62500   0.31026   1.000
    O555    O    0.08580   0.65580   0.33037   1.000
    O556    O    0.09356   0.62502   0.29793   1.000
    O557    O    0.10648   0.59297   0.35113   1.000
    O558    O    0.16420   0.59420   0.32197   1.000
    O559    O    0.15644   0.62498   0.26651   1.000
    O560    O    0.14352   0.65703   0.30059   1.000
    Zr561   Zr   0.91935   0.91935   0.42914   1.000
    O562    O    0.91536   0.96419   0.40107   1.000
    O563    O    0.87883   0.92908   0.42409   1.000
    O564    O    0.96419   0.91536   0.40107   1.000
    O565    O    0.93174   0.93174   0.45215   1.000
    O566    O    0.89648   0.89648   0.47290   1.000
    O567    O    0.92908   0.87883   0.42409   1.000
    Zr568   Zr   0.45419   0.45419   0.63744   1.000
    O569    O    0.42682   0.47767   0.66868   1.000
    O570    O    0.47767   0.42682   0.66868   1.000
    O571    O    0.42682   0.42682   0.66868   1.000
    O572    O    0.44811   0.49764   0.60614   1.000
    O573    O    0.49764   0.44811   0.60614   1.000
    O574    O    0.44811   0.44811   0.60614   1.000
    Zr575   Zr   0.31026   0.93974   0.62500   1.000
    O576    O    0.26651   0.95207   0.62498   1.000
    O577    O    0.33037   0.92803   0.65580   1.000
    O578    O    0.29793   0.98349   0.62502   1.000
    O579    O    0.35113   0.94941   0.59297   1.000
    O580    O    0.32197   0.91963   0.59420   1.000
    O581    O    0.30059   0.89887   0.65703   1.000
    Zr582   Zr   0.73217   0.42914   0.91935   1.000
    O583    O    0.76800   0.42409   0.92908   1.000
    O584    O    0.73413   0.47290   0.89648   1.000
    O585    O    0.71937   0.40107   0.91536   1.000
    O586    O    0.76800   0.42409   0.87883   1.000
    O587    O    0.68438   0.45215   0.93174   1.000
    O588    O    0.71937   0.40107   0.96419   1.000
    Zr589   Zr   0.74838   0.25162   0.25162   1.000
    O590    O    0.73075   0.26618   0.21772   1.000
    O591    O    0.75450   0.27174   0.27174   1.000
    O592    O    0.78536   0.21772   0.26618   1.000
    O593    O    0.78536   0.26618   0.21772   1.000
    O594    O    0.73075   0.21772   0.26618   1.000
    O595    O    0.70201   0.27174   0.27174   1.000
    Zr596   Zr   0.42913   0.91935   0.91935   1.000
    O597    O    0.42409   0.92908   0.87883   1.000
    O598    O    0.40107   0.91536   0.96419   1.000
    O599    O    0.45215   0.93174   0.93174   1.000
    O600    O    0.40107   0.96419   0.91536   1.000
    O601    O    0.42409   0.87883   0.92908   1.000
    O602    O    0.47290   0.89648   0.89648   1.000
    Zr603   Zr   0.79581   0.79581   0.79581   1.000
    O604    O    0.82318   0.77233   0.82318   1.000
    O605    O    0.82318   0.82318   0.77233   1.000
    O606    O    0.77233   0.82318   0.82318   1.000
    O607    O    0.80189   0.75236   0.80189   1.000
    O608    O    0.80189   0.80189   0.75236   1.000
    O609    O    0.75236   0.80189   0.80189   1.000
    Zr610   Zr   0.99838   0.99838   0.50162   1.000
    O611    O    0.03228   0.98382   0.51925   1.000
    O612    O    0.98382   0.03228   0.46464   1.000
    O613    O    0.03228   0.98382   0.46464   1.000
    O614    O    0.98382   0.03228   0.51925   1.000
    O615    O    0.97826   0.97826   0.49550   1.000
    O616    O    0.97826   0.97826   0.54799   1.000
    Zr617   Zr   0.12500   0.31026   0.93974   1.000
    O618    O    0.15644   0.26651   0.95207   1.000
    O619    O    0.14352   0.30059   0.89887   1.000
    O620    O    0.09356   0.29793   0.98349   1.000
    O621    O    0.10648   0.35113   0.94941   1.000
    O622    O    0.16420   0.32197   0.91963   1.000
    O623    O    0.08580   0.33037   0.92803   1.000
    Zr624   Zr   0.61256   0.79581   0.79581   1.000
    O625    O    0.58132   0.77233   0.82318   1.000
    O626    O    0.58132   0.82318   0.77233   1.000
    O627    O    0.58132   0.82318   0.82318   1.000
    O628    O    0.64386   0.75236   0.80189   1.000
    O629    O    0.64386   0.80189   0.75236   1.000
    O630    O    0.64386   0.80189   0.80189   1.000
    Zr631   Zr   0.93974   0.31026   0.62500   1.000
    O632    O    0.94941   0.35113   0.59297   1.000
    O633    O    0.91963   0.32197   0.59420   1.000
    O634    O    0.92803   0.33037   0.65580   1.000
    O635    O    0.98349   0.29793   0.62502   1.000
    O636    O    0.89887   0.30059   0.65703   1.000
    O637    O    0.95207   0.26651   0.62498   1.000
    Zr638   Zr   0.33065   0.82087   0.51783   1.000
    O639    O    0.31826   0.79785   0.56562   1.000
    O640    O    0.35352   0.77710   0.51587   1.000
    O641    O    0.32092   0.82591   0.48200   1.000
    O642    O    0.33464   0.84893   0.53063   1.000
    O643    O    0.28581   0.84893   0.53063   1.000
    O644    O    0.37117   0.82591   0.48200   1.000
    Zr645   Zr   0.99838   0.50162   0.99838   1.000
    O646    O    0.97826   0.54799   0.97826   1.000
    O647    O    0.97826   0.49550   0.97826   1.000
    O648    O    0.98382   0.51925   0.03228   1.000
    O649    O    0.98382   0.46464   0.03228   1.000
    O650    O    0.03228   0.51925   0.98382   1.000
    O651    O    0.03228   0.46464   0.98382   1.000
    Zr652   Zr   0.62500   0.12500   0.93974   1.000
    O653    O    0.62502   0.09356   0.98349   1.000
    O654    O    0.59420   0.16420   0.91963   1.000
    O655    O    0.59297   0.10648   0.94941   1.000
    O656    O    0.62498   0.15644   0.95207   1.000
    O657    O    0.65703   0.14352   0.89887   1.000
    O658    O    0.65580   0.08580   0.92803   1.000
    Zr659   Zr   0.42913   0.73217   0.91935   1.000
    O660    O    0.40107   0.71937   0.91536   1.000
    O661    O    0.40107   0.71937   0.96419   1.000
    O662    O    0.42409   0.76800   0.87883   1.000
    O663    O    0.42409   0.76800   0.92908   1.000
    O664    O    0.47290   0.73413   0.89648   1.000
    O665    O    0.45215   0.68438   0.93174   1.000
    Zr666   Zr   0.91935   0.73217   0.42914   1.000
    O667    O    0.92908   0.76800   0.42409   1.000
    O668    O    0.91536   0.71937   0.40107   1.000
    O669    O    0.96419   0.71937   0.40107   1.000
    O670    O    0.87883   0.76800   0.42409   1.000
    O671    O    0.89648   0.73413   0.47290   1.000
    O672    O    0.93174   0.68438   0.45215   1.000
    Zr673   Zr   0.31026   0.62500   0.93974   1.000
    O674    O    0.26651   0.62498   0.95207   1.000
    O675    O    0.35113   0.59297   0.94941   1.000
    O676    O    0.30059   0.65703   0.89887   1.000
    O677    O    0.32197   0.59420   0.91963   1.000
    O678    O    0.29793   0.62502   0.98349   1.000
    O679    O    0.33037   0.65580   0.92803   1.000
loop_
    _geom_bond_atom_site_label_1
    _geom_bond_atom_site_label_2
    _geom_bond_distance
    _geom_bond_site_symmetry_2
    _ccdc_geom_bond_type
    Zr204  O205      2.45610      .   S
    N69    O205      3.52944      .   S
    Zr204  O206      2.44443      .   S
    N166   O206      3.50847      .   S
    Zr204  O207      2.48703      .   S
    N97    O207      3.57566      .   S
    Zr204  O208      2.48701      .   S
    N90    O208      3.57559      .   S
    Zr204  O209      2.44441      .   S
    N143   O209      3.50854      .   S
    Zr204  O210      2.45616      .   S
    N187   O210      3.52939      .   S
    Zr211  O212      2.45610      .   S
    N52    O212      3.52944      .   S
    Zr211  O213      2.44441      .   S
    N58    O213      3.50854      .   S
    Zr211  O214      2.48703      .   S
    N27    O214      3.57566      .   S
    Zr211  O215      2.45616      .   S
    N85    O215      3.52939      .   S
    Zr211  O216      2.48701      .   S
    N116   O216      3.57559      .   S
    Zr211  O217      2.44443      .   S
    N158   O217      3.50847      .   S
    Zr218  O219      2.45211      .   S
    N64    O219      3.52220      .   S
    Zr218  O220      2.42511      .   S
    N0     O220      3.48120      .   S
    Zr218  O221      2.48239      .   S
    N84    O221      3.56570      .   S
    Zr218  O222      2.41946      .   S
    N182   O222      3.47407      .   S
    Zr218  O223      2.45208      .   S
    N25    O223      3.52213      .   S
    Zr218  O224      2.42510      .   S
    N194   O224      3.48115      .   S
    Zr225  O226      2.44385      .   S
    N168   O226      3.50828      .   S
    Zr225  O227      2.44383      .   S
    N198   O227      3.50827      .   S
    Zr225  O228      2.41010      .   S
    N199   O228      3.45571      .   S
    Zr225  O229      2.41018      .   S
    N73    O229      3.45586      .   S
    Zr225  O230      2.41010      .   S
    N177   O230      3.45571      .   S
    Zr225  O231      2.44383      .   S
    N89    O231      3.50827      .   S
    Zr232  O233      2.45208      .   S
    N35    O233      3.52213      .   S
    Zr232  O234      2.41946      .   S
    N170   O234      3.47407      .   S
    Zr232  O235      2.48239      .   S
    N167   O235      3.56570      .   S
    Zr232  O236      2.45211      .   S
    N18    O236      3.52220      .   S
    Zr232  O237      2.42510      .   S
    N3     O237      3.48115      .   S
    Zr232  O238      2.42511      .   S
    N196   O238      3.48120      .   S
    Zr239  O240      2.45616      .   S
    N104   O240      3.52939      .   S
    Zr239  O241      2.48703      .   S
    N130   O241      3.57566      .   S
    Zr239  O242      2.44443      .   S
    N154   O242      3.50847      .   S
    Zr239  O243      2.44441      .   S
    N196   O243      3.50854      .   S
    Zr239  O244      2.45610      .   S
    N153   O244      3.52944  1_455   S
    Zr239  O245      2.48701      .   S
    N24    O245      3.57559      .   S
    Zr246  O247      2.45610      .   S
    N17    O247      3.52944      .   S
    Zr246  O248      2.48703      .   S
    N7     O248      3.57566      .   S
    Zr246  O249      2.44441      .   S
    N138   O249      3.50854      .   S
    Zr246  O250      2.48701      .   S
    N162   O250      3.57559      .   S
    Zr246  O251      2.45616      .   S
    N66    O251      3.52939      .   S
    Zr246  O252      2.44443      .   S
    N110   O252      3.50847      .   S
    Zr253  O254      2.44385      .   S
    N34    O254      3.50828      .   S
    Zr253  O255      2.44383      .   S
    N170   O255      3.50827      .   S
    Zr253  O256      2.41018      .   S
    N14    O256      3.45586      .   S
    Zr253  O257      2.41010      .   S
    N32    O257      3.45571      .   S
    Zr253  O258      2.41010      .   S
    N129   O258      3.45571      .   S
    Zr253  O259      2.44383      .   S
    N81    O259      3.50827      .   S
    Zr260  O261      2.48239      .   S
    N189   O261      3.56570      .   S
    Zr260  O262      2.45211      .   S
    N18    O262      3.52220      .   S
    Zr260  O263      2.42511      .   S
    N9     O263      3.48120      .   S
    Zr260  O264      2.45208      .   S
    N13    O264      3.52213      .   S
    Zr260  O265      2.42510      .   S
    N145   O265      3.48115      .   S
    Zr260  O266      2.41946      .   S
    N81    O266      3.47407      .   S
    Zr267  O268      2.44975      .   S
    N41    O268      3.52231      .   S
    Zr267  O269      2.43277      .   S
    N102   O269      3.49266      .   S
    Zr267  O270      2.43277      .   S
    N120   O270      3.49266      .   S
    Zr267  O271      2.44983      .   S
    N192   O271      3.52245      .   S
    Zr267  O272      2.44983      .   S
    N105   O272      3.52245      .   S
    Zr267  O273      2.44975      .   S
    N179   O273      3.52231      .   S
    Zr274  O275      2.44386      .   S
    N42    O275      3.50828      .   S
    Zr274  O276      2.44386      .   S
    N15    O276      3.50828      .   S
    Zr274  O277      2.44386      .   S
    N29    O277      3.50828      .   S
    Zr274  O278      2.41006      .   S
    N28    O278      3.45562      .   S
    Zr274  O279      2.41006      .   S
    N14    O279      3.45562      .   S
    Zr274  O280      2.41006      .   S
    N56    O280      3.45562      .   S
    Zr281  O282      2.44444      .   S
    N139   O282      3.50845      .   S
    Zr281  O283      2.45611      .   S
    N11    O283      3.52943      .   S
    Zr281  O284      2.48698      .   S
    N16    O284      3.57549      .   S
    Zr281  O285      2.45611      .   S
    N160   O285      3.52943  1_455   S
    Zr281  O286      2.48698      .   S
    N118   O286      3.57549      .   S
    Zr281  O287      2.44444      .   S
    N36    O287      3.50845      .   S
    Zr288  O289      2.48237      .   S
    N164   O289      3.56572      .   S
    Zr288  O290      2.45210      .   S
    N6     O290      3.52218      .   S
    Zr288  O291      2.42511      .   S
    N110   O291      3.48122      .   S
    Zr288  O292      2.45210      .   S
    N43    O292      3.52218      .   S
    Zr288  O293      2.42511      .   S
    N8     O293      3.48122      .   S
    Zr288  O294      2.41948      .   S
    N15    O294      3.47413      .   S
    Zr295  O296      2.42511      .   S
    N1     O296      3.48121      .   S
    Zr295  O297      2.48251      .   S
    N10    O297      3.56561      .   S
    Zr295  O298      2.41947      .   S
    N34    O298      3.47410      .   S
    Zr295  O299      2.45212      .   S
    N35    O299      3.52224      .   S
    Zr295  O300      2.42511      .   S
    N36    O300      3.48121      .   S
    Zr295  O301      2.45212      .   S
    N13    O301      3.52224      .   S
    Zr302  O303      2.45616      .   S
    N5     O303      3.52939      .   S
    Zr302  O304      2.44443      .   S
    N195   O304      3.50847      .   S
    Zr302  O305      2.45610      .   S
    N61    O305      3.52944  1_554   S
    Zr302  O306      2.44441      .   S
    N174   O306      3.50854      .   S
    Zr302  O307      2.48703      .   S
    N155   O307      3.57566      .   S
    Zr302  O308      2.48701      .   S
    N41    O308      3.57559      .   S
    Zr309  O310      2.45208      .   S
    N100   O310      3.52213      .   S
    Zr309  O311      2.42511      .   S
    N174   O311      3.48120      .   S
    Zr309  O312      2.42510      .   S
    N72    O312      3.48115      .   S
    Zr309  O313      2.41946      .   S
    N12    O313      3.47407      .   S
    Zr309  O314      2.45211      .   S
    N64    O314      3.52220      .   S
    Zr309  O315      2.48239      .   S
    N120   O315      3.56570      .   S
    Zr316  O317      2.44983      .   S
    N178   O317      3.52245      .   S
    Zr316  O318      2.44975      .   S
    N68    O318      3.52231      .   S
    Zr316  O319      2.44983      .   S
    N148   O319      3.52245      .   S
    Zr316  O320      2.44975      .   S
    N185   O320      3.52231      .   S
    Zr316  O321      2.43277      .   S
    N92    O321      3.49266      .   S
    Zr316  O322      2.43277      .   S
    N189   O322      3.49266      .   S
    Zr323  O324      2.48698      .   S
    N127   O324      3.57549      .   S
    Zr323  O325      2.48698      .   S
    N151   O325      3.57549      .   S
    Zr323  O326      2.44444      .   S
    N159   O326      3.50845      .   S
    Zr323  O327      2.45611      .   S
    N144   O327      3.52943      .   S
    Zr323  O328      2.44444      .   S
    N197   O328      3.50845      .   S
    Zr323  O329      2.45611      .   S
    N135   O329      3.52943  1_554   S
    Zr330  O331      2.42511      .   S
    N70    O331      3.48122      .   S
    Zr330  O332      2.42511      .   S
    N158   O332      3.48122      .   S
    Zr330  O333      2.48237      .   S
    N157   O333      3.56572      .   S
    Zr330  O334      2.45210      .   S
    N6     O334      3.52218      .   S
    Zr330  O335      2.41948      .   S
    N29    O335      3.47413      .   S
    Zr330  O336      2.45210      .   S
    N124   O336      3.52218      .   S
    Zr337  O338      2.42511      .   S
    N125   O338      3.48121      .   S
    Zr337  O339      2.45212      .   S
    N100   O339      3.52224      .   S
    Zr337  O340      2.42511      .   S
    N159   O340      3.48121      .   S
    Zr337  O341      2.48251      .   S
    N31    O341      3.56561      .   S
    Zr337  O342      2.41947      .   S
    N119   O342      3.47410      .   S
    Zr337  O343      2.45212      .   S
    N25    O343      3.52224      .   S
    Zr344  O345      2.45608      .   S
    N106   O345      3.52947      .   S
    Zr344  O346      2.44439      .   S
    N181   O346      3.50860      .   S
    Zr344  O347      2.48699      .   S
    N82    O347      3.57551      .   S
    Zr344  O348      2.48699      .   S
    N137   O348      3.57551      .   S
    Zr344  O349      2.44439      .   S
    N194   O349      3.50860      .   S
    Zr344  O350      2.45608      .   S
    N172   O350      3.52947  1_554   S
    Zr351  O352      2.42511      .   S
    N58    O352      3.48120  1_455   S
    Zr351  O353      2.42510      .   S
    N91    O353      3.48115      .   S
    Zr351  O354      2.45208      .   S
    N95    O354      3.52213      .   S
    Zr351  O355      2.41946      .   S
    N89    O355      3.47407      .   S
    Zr351  O356      2.48239      .   S
    N53    O356      3.56570      .   S
    Zr351  O357      2.45211      .   S
    N202   O357      3.52220      .   S
    Zr358  O359      2.48698      .   S
    N78    O359      3.57549      .   S
    Zr358  O360      2.44444      .   S
    N51    O360      3.50845      .   S
    Zr358  O361      2.45611      .   S
    N135   O361      3.52943  1_545   S
    Zr358  O362      2.44444      .   S
    N22    O362      3.50845      .   S
    Zr358  O363      2.45611      .   S
    N87    O363      3.52943      .   S
    Zr358  O364      2.48698      .   S
    N163   O364      3.57549      .   S
    Zr365  O366      2.45608      .   S
    N80    O366      3.52947      .   S
    Zr365  O367      2.48699      .   S
    N178   O367      3.57551      .   S
    Zr365  O368      2.44439      .   S
    N191   O368      3.50860      .   S
    Zr365  O369      2.45608      .   S
    N98    O369      3.52947  1_455   S
    Zr365  O370      2.44439      .   S
    N145   O370      3.50860      .   S
    Zr365  O371      2.48699      .   S
    N48    O371      3.57551      .   S
    Zr372  O373      2.45611      .   S
    N11    O373      3.52943      .   S
    Zr372  O374      2.45611      .   S
    N19    O374      3.52943  1_455   S
    Zr372  O375      2.44444      .   S
    N1     O375      3.50845      .   S
    Zr372  O376      2.48698      .   S
    N46    O376      3.57549      .   S
    Zr372  O377      2.48698      .   S
    N45    O377      3.57549      .   S
    Zr372  O378      2.44444      .   S
    N57    O378      3.50845      .   S
    Zr379  O380      2.42510      .   S
    N30    O380      3.48115      .   S
    Zr379  O381      2.41946      .   S
    N23    O381      3.47407      .   S
    Zr379  O382      2.45211      .   S
    N2     O382      3.52220      .   S
    Zr379  O383      2.42511      .   S
    N128   O383      3.48120      .   S
    Zr379  O384      2.48239      .   S
    N92    O384      3.56570      .   S
    Zr379  O385      2.45208      .   S
    N33    O385      3.52213      .   S
    Zr386  O387      2.45616      .   S
    N193   O387      3.52939      .   S
    Zr386  O388      2.48701      .   S
    N38    O388      3.57559      .   S
    Zr386  O389      2.45610      .   S
    N52    O389      3.52944      .   S
    Zr386  O390      2.48703      .   S
    N156   O390      3.57566      .   S
    Zr386  O391      2.44441      .   S
    N173   O391      3.50854      .   S
    Zr386  O392      2.44443      .   S
    N70    O392      3.50847      .   S
    Zr393  O394      2.42511      .   S
    N142   O394      3.48122  1_554   S
    Zr393  O395      2.42511      .   S
    N103   O395      3.48122  1_545   S
    Zr393  O396      2.45210      .   S
    N37    O396      3.52218      .   S
    Zr393  O397      2.45210      .   S
    N134   O397      3.52218      .   S
    Zr393  O398      2.41948      .   S
    N20    O398      3.47413      .   S
    Zr393  O399      2.48237      .   S
    N67    O399      3.56572      .   S
    Zr400  O401      2.44980      .   S
    N60    O401      3.52242      .   S
    Zr400  O402      2.43281      .   S
    N169   O402      3.49266      .   S
    Zr400  O403      2.43278      .   S
    N161   O403      3.49266      .   S
    Zr400  O404      2.44980      .   S
    N163   O404      3.52242      .   S
    Zr400  O405      2.44972      .   S
    N39    O405      3.52223      .   S
    Zr400  O406      2.44972      .   S
    N97    O406      3.52223      .   S
    Zr407  O408      2.42510      .   S
    N55    O408      3.48115      .   S
    Zr407  O409      2.45211      .   S
    N77    O409      3.52220      .   S
    Zr407  O410      2.45208      .   S
    N140   O410      3.52213      .   S
    Zr407  O411      2.42511      .   S
    N138   O411      3.48120  1_545   S
    Zr407  O412      2.48239      .   S
    N131   O412      3.56570      .   S
    Zr407  O413      2.41946      .   S
    N76    O413      3.47407      .   S
    Zr414  O415      2.45208      .   S
    N152   O415      3.52213      .   S
    Zr414  O416      2.48239      .   S
    N50    O416      3.56570      .   S
    Zr414  O417      2.42510      .   S
    N79    O417      3.48115      .   S
    Zr414  O418      2.41946      .   S
    N176   O418      3.47407      .   S
    Zr414  O419      2.45211      .   S
    N146   O419      3.52220      .   S
    Zr414  O420      2.42511      .   S
    N173   O420      3.48120  1_545   S
    Zr421  O422      2.44980      .   S
    N127   O422      3.52242      .   S
    Zr421  O423      2.44980      .   S
    N149   O423      3.52242      .   S
    Zr421  O424      2.43278      .   S
    N157   O424      3.49266      .   S
    Zr421  O425      2.44972      .   S
    N27    O425      3.52223      .   S
    Zr421  O426      2.44972      .   S
    N156   O426      3.52223      .   S
    Zr421  O427      2.43281      .   S
    N31    O427      3.49266      .   S
    Zr428  O429      2.44975  1_655   S
    N21    O429      3.52231      .   S
    Zr428  O430      2.44975  1_655   S
    N116   O430      3.52231      .   S
    Zr428  O431      2.44983      .   S
    N48    O431      3.52245      .   S
    Zr428  O432      2.43277      .   S
    N59    O432      3.49266      .   S
    Zr428  O433      2.44983      .   S
    N122   O433      3.52245      .   S
    Zr428  O434      2.43277      .   S
    N53    O434      3.49266      .   S
    Zr435  O436      2.48699      .   S
    N99    O436      3.57551      .   S
    Zr435  O437      2.48699      .   S
    N148   O437      3.57551      .   S
    Zr435  O438      2.45608      .   S
    N26    O438      3.52947      .   S
    Zr435  O439      2.44439      .   S
    N55    O439      3.50860      .   S
    Zr435  O440      2.45608      .   S
    N66    O440      3.52947  1_545   S
    Zr435  O441      2.44439      .   S
    N30    O441      3.50860      .   S
    Zr442  O443      2.44443      .   S
    N142   O443      3.50847      .   S
    Zr442  O444      2.45616      .   S
    N26    O444      3.52939      .   S
    Zr442  O445      2.48701      .   S
    N68    O445      3.57559      .   S
    Zr442  O446      2.45610      .   S
    N63    O446      3.52944  1_545   S
    Zr442  O447      2.44441      .   S
    N128   O447      3.50854      .   S
    Zr442  O448      2.48703      .   S
    N123   O448      3.57566      .   S
    Zr449  O450      2.43277      .   S
    N50    O450      3.49266      .   S
    Zr449  O451      2.44983      .   S
    N83    O451      3.52245      .   S
    Zr449  O452      2.44975  1_565   S
    N162   O452      3.52231      .   S
    Zr449  O453      2.44983      .   S
    N99    O453      3.52245      .   S
    Zr449  O454      2.44975  1_565   S
    N38    O454      3.52231      .   S
    Zr449  O455      2.43277      .   S
    N131   O455      3.49266      .   S
    Zr456  O457      2.45616      .   S
    N62    O457      3.52939      .   S
    Zr456  O458      2.48703      .   S
    N132   O458      3.57566      .   S
    Zr456  O459      2.45610      .   S
    N153   O459      3.52944  1_545   S
    Zr456  O460      2.44441      .   S
    N175   O460      3.50854      .   S
    Zr456  O461      2.48701      .   S
    N179   O461      3.57559      .   S
    Zr456  O462      2.44443      .   S
    N183   O462      3.50847      .   S
    Zr463  O464      2.42511      .   S
    N115   O464      3.48121  1_455   S
    Zr463  O465      2.48251      .   S
    N186   O465      3.56561      .   S
    Zr463  O466      2.45212      .   S
    N95    O466      3.52224      .   S
    Zr463  O467      2.45212      .   S
    N107   O467      3.52224      .   S
    Zr463  O468      2.41947      .   S
    N168   O468      3.47410      .   S
    Zr463  O469      2.42511      .   S
    N139   O469      3.48121  1_554   S
    Zr470  O471      2.44980  1_556   S
    N78    O471      3.52242      .   S
    Zr470  O472      2.44972  1_565   S
    N121   O472      3.52223      .   S
    Zr470  O473      2.44980  1_565   S
    N151   O473      3.52242      .   S
    Zr470  O474      2.44972  1_556   S
    N123   O474      3.52223      .   S
    Zr470  O475      2.43278      .   S
    N67    O475      3.49266      .   S
    Zr470  O476      2.43281      .   S
    N133   O476      3.49266      .   S
    Zr477  O478      2.44383      .   S
    N23    O478      3.50827      .   S
    Zr477  O479      2.44383      .   S
    N93    O479      3.50827      .   S
    Zr477  O480      2.41018      .   S
    N56    O480      3.45586      .   S
    Zr477  O481      2.44385      .   S
    N71    O481      3.50828      .   S
    Zr477  O482      2.41010      .   S
    N184   O482      3.45571      .   S
    Zr477  O483      2.41010      .   S
    N32    O483      3.45571      .   S
    Zr484  O485      2.42511      .   S
    N126   O485      3.48122  1_554   S
    Zr484  O486      2.45210      .   S
    N37    O486      3.52218      .   S
    Zr484  O487      2.42511      .   S
    N195   O487      3.48122  1_455   S
    Zr484  O488      2.45210      .   S
    N112   O488      3.52218      .   S
    Zr484  O489      2.48237      .   S
    N86    O489      3.56572      .   S
    Zr484  O490      2.41948      .   S
    N74    O490      3.47413      .   S
    Zr491  O492      2.42511      .   S
    N22    O492      3.48121      .   S
    Zr491  O493      2.45212      .   S
    N33    O493      3.52224      .   S
    Zr491  O494      2.45212      .   S
    N65    O494      3.52224      .   S
    Zr491  O495      2.41947      .   S
    N71    O495      3.47410      .   S
    Zr491  O496      2.42511      .   S
    N40    O496      3.48121      .   S
    Zr491  O497      2.48251      .   S
    N169   O497      3.56561      .   S
    Zr498  O499      2.41018      .   S
    N101   O499      3.45586      .   S
    Zr498  O500      2.44385      .   S
    N108   O500      3.50828      .   S
    Zr498  O501      2.41010      .   S
    N75    O501      3.45571      .   S
    Zr498  O502      2.41010      .   S
    N199   O502      3.45571      .   S
    Zr498  O503      2.44383      .   S
    N171   O503      3.50827      .   S
    Zr498  O504      2.44383      .   S
    N76    O504      3.50827      .   S
    Zr505  O506      2.44983      .   S
    N82    O506      3.52245      .   S
    Zr505  O507      2.44983      .   S
    N201   O507      3.52245      .   S
    Zr505  O508      2.44975      .   S
    N165   O508      3.52231      .   S
    Zr505  O509      2.44975      .   S
    N24    O509      3.52231      .   S
    Zr505  O510      2.43277      .   S
    N84    O510      3.49266      .   S
    Zr505  O511      2.43277      .   S
    N167   O511      3.49266      .   S
    Zr512  O513      2.45610      .   S
    N61    O513      3.52944  1_455   S
    Zr512  O514      2.48703      .   S
    N117   O514      3.57566      .   S
    Zr512  O515      2.44441      .   S
    N9     O515      3.50854      .   S
    Zr512  O516      2.48701      .   S
    N185   O516      3.57559      .   S
    Zr512  O517      2.44443      .   S
    N126   O517      3.50847      .   S
    Zr512  O518      2.45616      .   S
    N80    O518      3.52939      .   S
    Zr519  O520      2.48701      .   S
    N141   O520      3.57559      .   S
    Zr519  O521      2.45616      .   S
    N172   O521      3.52939      .   S
    Zr519  O522      2.48703      .   S
    N150   O522      3.57566      .   S
    Zr519  O523      2.44441      .   S
    N49    O523      3.50854      .   S
    Zr519  O524      2.44443      .   S
    N8     O524      3.50847      .   S
    Zr519  O525      2.45610      .   S
    N17    O525      3.52944      .   S
    Zr526  O527      2.43277      .   S
    N188   O527      3.49266      .   S
    Zr526  O528      2.43277      .   S
    N54    O528      3.49266      .   S
    Zr526  O529      2.44975  1_556   S
    N141   O529      3.52231      .   S
    Zr526  O530      2.44975  1_556   S
    N90    O530      3.52231      .   S
    Zr526  O531      2.44983      .   S
    N180   O531      3.52245      .   S
    Zr526  O532      2.44983      .   S
    N137   O532      3.52245      .   S
    Zr533  O534      2.42511      .   S
    N4     O534      3.48122      .   S
    Zr533  O535      2.41948      .   S
    N42    O535      3.47413      .   S
    Zr533  O536      2.45210      .   S
    N43    O536      3.52218      .   S
    Zr533  O537      2.48237      .   S
    N161   O537      3.56572      .   S
    Zr533  O538      2.45210      .   S
    N124   O538      3.52218      .   S
    Zr533  O539      2.42511      .   S
    N166   O539      3.48122      .   S
    Zr540  O541      2.45611      .   S
    N87    O541      3.52943      .   S
    Zr540  O542      2.45611      .   S
    N19    O542      3.52943  1_545   S
    Zr540  O543      2.44444      .   S
    N40    O543      3.50845      .   S
    Zr540  O544      2.44444      .   S
    N136   O544      3.50845      .   S
    Zr540  O545      2.48698      .   S
    N44    O545      3.57549      .   S
    Zr540  O546      2.48698      .   S
    N60    O546      3.57549      .   S
    Zr547  O548      2.45210      .   S
    N112   O548      3.52218      .   S
    Zr547  O549      2.42511      .   S
    N154   O549      3.48122  1_545   S
    Zr547  O550      2.42511      .   S
    N183   O550      3.48122  1_455   S
    Zr547  O551      2.41948      .   S
    N111   O551      3.47413      .   S
    Zr547  O552      2.48237      .   S
    N96    O552      3.56572      .   S
    Zr547  O553      2.45210      .   S
    N134   O553      3.52218      .   S
    Zr554  O555      2.44441      .   S
    N114   O555      3.50854      .   S
    Zr554  O556      2.45616      .   S
    N98    O556      3.52939      .   S
    Zr554  O557      2.48701      .   S
    N21    O557      3.57559      .   S
    Zr554  O558      2.44443      .   S
    N4     O558      3.50847      .   S
    Zr554  O559      2.45610      .   S
    N69    O559      3.52944      .   S
    Zr554  O560      2.48703      .   S
    N39    O560      3.57566      .   S
    Zr561  O562      2.42511      .   S
    N57    O562      3.48121  1_545   S
    Zr561  O563      2.45212      .   S
    N140   O563      3.52224      .   S
    Zr561  O564      2.42511      .   S
    N136   O564      3.48121  1_455   S
    Zr561  O565      2.48251      .   S
    N109   O565      3.56561      .   S
    Zr561  O566      2.41947      .   S
    N108   O566      3.47410      .   S
    Zr561  O567      2.45212      .   S
    N190   O567      3.52224      .   S
    Zr568  O569      2.44383      .   S
    N12    O569      3.50827      .   S
    Zr568  O570      2.44383      .   S
    N182   O570      3.50827      .   S
    Zr568  O571      2.44385      .   S
    N119   O571      3.50828      .   S
    Zr568  O572      2.41010      .   S
    N184   O572      3.45571      .   S
    Zr568  O573      2.41010      .   S
    N129   O573      3.45571      .   S
    Zr568  O574      2.41018      .   S
    N28    O574      3.45586      .   S
    Zr575  O576      2.45608      .   S
    N62    O576      3.52947      .   S
    Zr575  O577      2.44439      .   S
    N79    O577      3.50860      .   S
    Zr575  O578      2.45608      .   S
    N193   O578      3.52947  1_545   S
    Zr575  O579      2.48699      .   S
    N83    O579      3.57551      .   S
    Zr575  O580      2.44439      .   S
    N47    O580      3.50860      .   S
    Zr575  O581      2.48699      .   S
    N105   O581      3.57551      .   S
    Zr582  O583      2.45208      .   S
    N107   O583      3.52213      .   S
    Zr582  O584      2.41946      .   S
    N198   O584      3.47407      .   S
    Zr582  O585      2.42510      .   S
    N181   O585      3.48115      .   S
    Zr582  O586      2.45211      .   S
    N202   O586      3.52220      .   S
    Zr582  O587      2.48239      .   S
    N54    O587      3.56570      .   S
    Zr582  O588      2.42511      .   S
    N49    O588      3.48120  1_554   S
    Zr589  O590      2.44972      .   S
    N150   O590      3.52223      .   S
    Zr589  O591      2.43281      .   S
    N10    O591      3.49266      .   S
    Zr589  O592      2.44980      .   S
    N46    O592      3.52242      .   S
    Zr589  O593      2.44980      .   S
    N16    O593      3.52242      .   S
    Zr589  O594      2.44972      .   S
    N7     O594      3.52223      .   S
    Zr589  O595      2.43278      .   S
    N164   O595      3.49266      .   S
    Zr596  O597      2.45212      .   S
    N152   O597      3.52224      .   S
    Zr596  O598      2.42511      .   S
    N51    O598      3.48121  1_554   S
    Zr596  O599      2.48251      .   S
    N133   O599      3.56561      .   S
    Zr596  O600      2.42511      .   S
    N197   O600      3.48121  1_545   S
    Zr596  O601      2.45212      .   S
    N88    O601      3.52224      .   S
    Zr596  O602      2.41947      .   S
    N147   O602      3.47410      .   S
    Zr603  O604      2.44386      .   S
    N74    O604      3.50828      .   S
    Zr603  O605      2.44386      .   S
    N111   O605      3.50828      .   S
    Zr603  O606      2.44386      .   S
    N20    O606      3.50828      .   S
    Zr603  O607      2.41006      .   S
    N73    O607      3.45562      .   S
    Zr603  O608      2.41006      .   S
    N101   O608      3.45562      .   S
    Zr603  O609      2.41006      .   S
    N94    O609      3.45562      .   S
    Zr610  O611      2.44972  1_655   S
    N132   O611      3.52223      .   S
    Zr610  O612      2.44980  1_565   S
    N45    O612      3.52242      .   S
    Zr610  O613      2.44980  1_655   S
    N44    O613      3.52242      .   S
    Zr610  O614      2.44972  1_565   S
    N130   O614      3.52223      .   S
    Zr610  O615      2.43281      .   S
    N109   O615      3.49266      .   S
    Zr610  O616      2.43278      .   S
    N96    O616      3.49266      .   S
    Zr617  O618      2.45611      .   S
    N144   O618      3.52943      .   S
    Zr617  O619      2.48698      .   S
    N149   O619      3.57549      .   S
    Zr617  O620      2.45611      .   S
    N160   O620      3.52943  1_554   S
    Zr617  O621      2.48698      .   S
    N200   O621      3.57549      .   S
    Zr617  O622      2.44444      .   S
    N125   O622      3.50845      .   S
    Zr617  O623      2.44444      .   S
    N115   O623      3.50845      .   S
    Zr624  O625      2.44383      .   S
    N203   O625      3.50827      .   S
    Zr624  O626      2.44383      .   S
    N176   O626      3.50827      .   S
    Zr624  O627      2.44385      .   S
    N147   O627      3.50828      .   S
    Zr624  O628      2.41010      .   S
    N177   O628      3.45571      .   S
    Zr624  O629      2.41010      .   S
    N75    O629      3.45571      .   S
    Zr624  O630      2.41018      .   S
    N94    O630      3.45586      .   S
    Zr631  O632      2.48699      .   S
    N122   O632      3.57551      .   S
    Zr631  O633      2.44439      .   S
    N3     O633      3.50860      .   S
    Zr631  O634      2.44439      .   S
    N91    O634      3.50860      .   S
    Zr631  O635      2.45608      .   S
    N85    O635      3.52947  1_455   S
    Zr631  O636      2.48699      .   S
    N201   O636      3.57551      .   S
    Zr631  O637      2.45608      .   S
    N104   O637      3.52947      .   S
    Zr638  O639      2.48239      .   S
    N102   O639      3.56570      .   S
    Zr638  O640      2.41946      .   S
    N93    O640      3.47407      .   S
    Zr638  O641      2.45208      .   S
    N65    O641      3.52213      .   S
    Zr638  O642      2.42510      .   S
    N47    O642      3.48115      .   S
    Zr638  O643      2.42511      .   S
    N175   O643      3.48120      .   S
    Zr638  O644      2.45211      .   S
    N2     O644      3.52220      .   S
    Zr645  O646      2.43278      .   S
    N86    O646      3.49266      .   S
    Zr645  O647      2.43281      .   S
    N186   O647      3.49266      .   S
    Zr645  O648      2.44972  1_556   S
    N117   O648      3.52223      .   S
    Zr645  O649      2.44980  1_556   S
    N118   O649      3.52242      .   S
    Zr645  O650      2.44972  1_655   S
    N155   O650      3.52223      .   S
    Zr645  O651      2.44980  1_655   S
    N200   O651      3.52242      .   S
    Zr652  O653      2.45610      .   S
    N63    O653      3.52944  1_554   S
    Zr652  O654      2.44441      .   S
    N0     O654      3.50854      .   S
    Zr652  O655      2.48703      .   S
    N121   O655      3.57566      .   S
    Zr652  O656      2.45616      .   S
    N106   O656      3.52939      .   S
    Zr652  O657      2.48701      .   S
    N165   O657      3.57559      .   S
    Zr652  O658      2.44443      .   S
    N103   O658      3.50847      .   S
    Zr659  O660      2.42510      .   S
    N113   O660      3.48115      .   S
    Zr659  O661      2.42511      .   S
    N143   O661      3.48120  1_554   S
    Zr659  O662      2.45211      .   S
    N146   O662      3.52220      .   S
    Zr659  O663      2.45208      .   S
    N88    O663      3.52213      .   S
    Zr659  O664      2.41946      .   S
    N203   O664      3.47407      .   S
    Zr659  O665      2.48239      .   S
    N188   O665      3.56570      .   S
    Zr666  O667      2.45208      .   S
    N190   O667      3.52213      .   S
    Zr666  O668      2.42510      .   S
    N191   O668      3.48115      .   S
    Zr666  O669      2.42511      .   S
    N114   O669      3.48120  1_455   S
    Zr666  O670      2.45211      .   S
    N77    O670      3.52220      .   S
    Zr666  O671      2.41946      .   S
    N171   O671      3.47407      .   S
    Zr666  O672      2.48239      .   S
    N59    O672      3.56570      .   S
    Zr673  O674      2.45608      .   S
    N5     O674      3.52947      .   S
    Zr673  O675      2.48699      .   S
    N180   O675      3.57551      .   S
    Zr673  O676      2.48699      .   S
    N192   O676      3.57551      .   S
    Zr673  O677      2.44439      .   S
    N72    O677      3.50860      .   S
    Zr673  O678      2.45608      .   S
    N187   O678      3.52947  1_554   S
    Zr673  O679      2.44439      .   S
    N113   O679      3.50860      .   S
