# CIF file generated by openbabel 2.4.90, see http://openbabel.sf.net
data_I
_chemical_name_common ''
_cell_length_a 62.8399
_cell_length_b 62.8399
_cell_length_c 62.8399
_cell_angle_alpha 60
_cell_angle_beta 60
_cell_angle_gamma 60
_space_group_name_H-M_alt 'P 1'
_space_group_name_Hall 'P 1'
loop_
    _symmetry_equiv_pos_as_xyz
    x,y,z
loop_
    _atom_site_label
    _atom_site_type_symbol
    _atom_site_fract_x
    _atom_site_fract_y
    _atom_site_fract_z
    _atom_site_occupancy
    C0      C    0.42240   0.46092   0.54723   1.000
    C1      C    0.36102   0.39955   0.51247   1.000
    C2      C    0.37603   0.41455   0.50403   1.000
    C3      C    0.31679   0.40521   0.42746   1.000
    C4      C    0.31227   0.38220   0.47489   1.000
    C5      C    0.31089   0.40641   0.45167   1.000
    C6      C    0.30458   0.43068   0.45304   1.000
    C7      C    0.18594   0.20837   0.64843   1.000
    C8      C    0.15936   0.25305   0.62501   1.000
    C9      C    0.18218   0.22795   0.62494   1.000
    C10     C    0.20145   0.22390   0.60143   1.000
    C11     C    0.16297   0.26799   0.70516   1.000
    C12     C    0.14404   0.29961   0.66831   1.000
    C13     C    0.15870   0.29240   0.68530   1.000
    C14     C    0.17681   0.26152   0.72083   1.000
    C15     C    0.20310   0.27199   0.73261   1.000
    C16     C    0.18675   0.27927   0.71726   1.000
    C17     C    0.16851   0.31016   0.68190   1.000
    C18     C    0.18222   0.30374   0.69757   1.000
    C19     C    0.28425   0.32264   0.62099   1.000
    C20     C    0.27520   0.31363   0.64841   1.000
    C21     C    0.32224   0.24194   0.53632   1.000
    C22     C    0.34166   0.27304   0.52830   1.000
    C23     C    0.33972   0.24672   0.53987   1.000
    C24     C    0.31889   0.21750   0.54938   1.000
    C25     C    0.07796   0.33257   0.66808   1.000
    C26     C    0.33299   0.19747   0.56615   1.000
    C27     C    0.35438   0.22638   0.55592   1.000
    C28     C    0.35111   0.20213   0.56881   1.000
    O29     O    0.42559   0.46103   0.50214   1.000
    O30     O    0.33327   0.36883   0.52525   1.000
    O31     O    0.40801   0.44352   0.48477   1.000
    O32     O    0.30637   0.38370   0.49673   1.000
    O33     O    0.36082   0.31969   0.47176   1.000
    O34     O    0.14341   0.25626   0.64681   1.000
    O35     O    0.09285   0.28098   0.64670   1.000
    O36     O    0.13396   0.28390   0.67277   1.000
    O37     O    0.14205   0.32149   0.65000   1.000
    O38     O    0.20797   0.24927   0.74940   1.000
    O39     O    0.21218   0.28867   0.72771   1.000
    O40     O    0.30379   0.33926   0.56556   1.000
    O41     O    0.25801   0.29346   0.70249   1.000
    O42     O    0.33112   0.29016   0.51111   1.000
    O43     O    0.27746   0.35332   0.53657   1.000
    O44     O    0.08410   0.30855   0.67227   1.000
    O45     O    0.15737   0.33907   0.59943   1.000
    H46     H    0.40729   0.47622   0.53902   1.000
    H47     H    0.34037   0.40917   0.51532   1.000
    H48     H    0.36649   0.43529   0.50073   1.000
    H49     H    0.32174   0.38695   0.42554   1.000
    H50     H    0.29999   0.43236   0.47131   1.000
    H51     H    0.17176   0.21061   0.66698   1.000
    H52     H    0.19950   0.23842   0.58290   1.000
    H53     H    0.15579   0.25374   0.70849   1.000
    H54     H    0.17998   0.24241   0.73557   1.000
    H55     H    0.16567   0.32917   0.66698   1.000
    H56     H    0.18961   0.31797   0.69394   1.000
    H57     H    0.27242   0.34107   0.61090   1.000
    H58     H    0.25665   0.32549   0.65835   1.000
    H59     H    0.31059   0.25730   0.52408   1.000
    H60     H    0.30483   0.21452   0.54690   1.000
    H61     H    0.36814   0.22928   0.55895   1.000
    H62     H    0.36260   0.18711   0.58131   1.000
    C63     C    0.46092   0.42240   0.56944   1.000
    C64     C    0.39955   0.36102   0.72696   1.000
    C65     C    0.41455   0.37603   0.70539   1.000
    C66     C    0.40521   0.31679   0.85054   1.000
    C67     C    0.38220   0.31227   0.83063   1.000
    C68     C    0.40641   0.31089   0.83104   1.000
    C69     C    0.43068   0.30458   0.81170   1.000
    C70     C    0.20837   0.18594   0.95726   1.000
    C71     C    0.25305   0.15936   0.96258   1.000
    C72     C    0.22795   0.18218   0.96494   1.000
    C73     C    0.22390   0.20145   0.97322   1.000
    C74     C    0.26799   0.16297   0.86389   1.000
    C75     C    0.29961   0.14404   0.88804   1.000
    C76     C    0.29240   0.15870   0.86360   1.000
    C77     C    0.26152   0.17681   0.84085   1.000
    C78     C    0.27199   0.20310   0.79230   1.000
    C79     C    0.27927   0.18675   0.81672   1.000
    C80     C    0.31016   0.16851   0.83943   1.000
    C81     C    0.30374   0.18222   0.81647   1.000
    C82     C    0.32264   0.28425   0.77212   1.000
    C83     C    0.31363   0.27520   0.76276   1.000
    C84     C    0.24194   0.32224   0.89950   1.000
    C85     C    0.27304   0.34166   0.85700   1.000
    C86     C    0.24672   0.33972   0.87369   1.000
    C87     C    0.21750   0.31889   0.91423   1.000
    C88     C    0.33257   0.07796   0.92138   1.000
    C89     C    0.19747   0.33299   0.90339   1.000
    C90     C    0.22638   0.35438   0.86331   1.000
    C91     C    0.20213   0.35111   0.87794   1.000
    O92     O    0.46103   0.42559   0.61124   1.000
    O93     O    0.36883   0.33327   0.77265   1.000
    O94     O    0.44352   0.40801   0.66370   1.000
    O95     O    0.38370   0.30637   0.81320   1.000
    C96     C    0.70539   0.50403   0.41455   1.000
    C97     C    0.85054   0.42746   0.40521   1.000
    C98     C    0.83063   0.47489   0.38220   1.000
    O99     O    0.31969   0.36082   0.84773   1.000
    O100    O    0.25626   0.14341   0.95352   1.000
    O101    O    0.28098   0.09285   0.97946   1.000
    O102    O    0.28390   0.13396   0.90937   1.000
    O103    O    0.32149   0.14205   0.88647   1.000
    O104    O    0.24927   0.20797   0.79336   1.000
    O105    O    0.28867   0.21218   0.77143   1.000
    O106    O    0.33926   0.30379   0.79140   1.000
    O107    O    0.29346   0.25801   0.74604   1.000
    O108    O    0.29016   0.33112   0.86762   1.000
    O109    O    0.35332   0.27746   0.83264   1.000
    O110    O    0.30855   0.08410   0.93508   1.000
    O111    O    0.33907   0.15737   0.90414   1.000
    H112    H    0.47622   0.40729   0.57747   1.000
    H113    H    0.40917   0.34037   0.73515   1.000
    H114    H    0.43529   0.36649   0.69749   1.000
    H115    H    0.38695   0.32174   0.86577   1.000
    H116    H    0.43236   0.29999   0.79634   1.000
    H117    H    0.21061   0.17176   0.95064   1.000
    H118    H    0.23842   0.19950   0.97918   1.000
    H119    H    0.25374   0.15579   0.88199   1.000
    H120    H    0.24241   0.17998   0.84203   1.000
    H121    H    0.32917   0.16567   0.83819   1.000
    H122    H    0.31797   0.18961   0.79849   1.000
    H123    H    0.34107   0.27242   0.77561   1.000
    H124    H    0.32549   0.25665   0.75951   1.000
    H125    H    0.25730   0.31059   0.90802   1.000
    H126    H    0.21452   0.30483   0.93376   1.000
    H127    H    0.90802   0.52408   0.25730   1.000
    H128    H    0.93376   0.54690   0.21452   1.000
    H129    H    0.84363   0.55895   0.22928   1.000
    H130    H    0.86898   0.58131   0.18711   1.000
    H131    H    0.22928   0.36814   0.84363   1.000
    H132    H    0.18711   0.36260   0.86898   1.000
    C133    C    0.54723   0.56944   0.42240   1.000
    C134    C    0.51247   0.72696   0.36102   1.000
    C135    C    0.50403   0.70539   0.37603   1.000
    C136    C    0.42746   0.85054   0.31679   1.000
    C137    C    0.47489   0.83063   0.31227   1.000
    C138    C    0.45167   0.83104   0.31089   1.000
    C139    C    0.45304   0.81170   0.30458   1.000
    C140    C    0.64843   0.95726   0.18594   1.000
    C141    C    0.62501   0.96258   0.15936   1.000
    C142    C    0.62494   0.96494   0.18218   1.000
    C143    C    0.60143   0.97322   0.20145   1.000
    C144    C    0.70516   0.86389   0.16297   1.000
    C145    C    0.66831   0.88804   0.14404   1.000
    C146    C    0.68530   0.86360   0.15870   1.000
    C147    C    0.72083   0.84085   0.17681   1.000
    C148    C    0.73261   0.79230   0.20310   1.000
    C149    C    0.71726   0.81672   0.18675   1.000
    C150    C    0.68190   0.83943   0.16851   1.000
    C151    C    0.69757   0.81647   0.18222   1.000
    C152    C    0.62099   0.77212   0.28425   1.000
    C153    C    0.64841   0.76276   0.27520   1.000
    C154    C    0.53632   0.89950   0.32224   1.000
    C155    C    0.52830   0.85700   0.34166   1.000
    C156    C    0.53987   0.87369   0.33972   1.000
    C157    C    0.54938   0.91423   0.31889   1.000
    C158    C    0.66808   0.92138   0.07796   1.000
    C159    C    0.56615   0.90339   0.33299   1.000
    C160    C    0.55592   0.86331   0.35438   1.000
    C161    C    0.56881   0.87794   0.35111   1.000
    O162    O    0.50214   0.61124   0.42559   1.000
    O163    O    0.52525   0.77265   0.33327   1.000
    O164    O    0.48477   0.66370   0.40801   1.000
    O165    O    0.49673   0.81320   0.30637   1.000
    O166    O    0.47176   0.84773   0.36082   1.000
    O167    O    0.64681   0.95352   0.14341   1.000
    O168    O    0.64670   0.97946   0.09285   1.000
    O169    O    0.67277   0.90937   0.13396   1.000
    O170    O    0.65000   0.88647   0.14205   1.000
    O171    O    0.74940   0.79336   0.20797   1.000
    O172    O    0.72771   0.77143   0.21218   1.000
    O173    O    0.56556   0.79140   0.30379   1.000
    O174    O    0.70249   0.74604   0.25801   1.000
    O175    O    0.51111   0.86762   0.33112   1.000
    O176    O    0.53657   0.83264   0.27746   1.000
    O177    O    0.67227   0.93508   0.08410   1.000
    O178    O    0.59943   0.90414   0.15737   1.000
    H179    H    0.53902   0.57747   0.40729   1.000
    H180    H    0.51532   0.73515   0.34037   1.000
    H181    H    0.50073   0.69749   0.36649   1.000
    H182    H    0.42554   0.86577   0.32174   1.000
    H183    H    0.47131   0.79634   0.29999   1.000
    H184    H    0.66698   0.95064   0.17176   1.000
    H185    H    0.58290   0.97918   0.19950   1.000
    H186    H    0.70849   0.88199   0.15579   1.000
    H187    H    0.73557   0.84203   0.17998   1.000
    H188    H    0.66698   0.83819   0.16567   1.000
    H189    H    0.69394   0.79849   0.18961   1.000
    H190    H    0.61090   0.77561   0.27242   1.000
    H191    H    0.65835   0.75951   0.25665   1.000
    H192    H    0.52408   0.90802   0.31059   1.000
    H193    H    0.54690   0.93376   0.30483   1.000
    H194    H    0.55895   0.84363   0.36814   1.000
    H195    H    0.58131   0.86898   0.36260   1.000
    C196    C    0.56944   0.54723   0.46092   1.000
    C197    C    0.72696   0.51247   0.39955   1.000
    C198    C    0.31089   0.45167   0.83104   1.000
    C199    C    0.30458   0.45304   0.81170   1.000
    C200    C    0.18594   0.64843   0.95726   1.000
    C201    C    0.15936   0.62501   0.96258   1.000
    C202    C    0.18218   0.62494   0.96494   1.000
    C203    C    0.20145   0.60143   0.97322   1.000
    C204    C    0.83104   0.45167   0.40641   1.000
    C205    C    0.81170   0.45304   0.43068   1.000
    C206    C    0.95726   0.64843   0.20837   1.000
    C207    C    0.96258   0.62501   0.25305   1.000
    C208    C    0.96494   0.62494   0.22795   1.000
    C209    C    0.97322   0.60143   0.22390   1.000
    C210    C    0.86389   0.70516   0.26799   1.000
    C211    C    0.88804   0.66831   0.29961   1.000
    C212    C    0.86360   0.68530   0.29240   1.000
    C213    C    0.84085   0.72083   0.26152   1.000
    C214    C    0.79230   0.73261   0.27199   1.000
    C215    C    0.81672   0.71726   0.27927   1.000
    C216    C    0.83943   0.68190   0.31016   1.000
    C217    C    0.81647   0.69757   0.30374   1.000
    C218    C    0.77212   0.62099   0.32264   1.000
    C219    C    0.76276   0.64841   0.31363   1.000
    C220    C    0.89950   0.53632   0.24194   1.000
    C221    C    0.85700   0.52830   0.27304   1.000
    C222    C    0.87369   0.53987   0.24672   1.000
    C223    C    0.91423   0.54938   0.21750   1.000
    C224    C    0.92138   0.66808   0.33257   1.000
    C225    C    0.90339   0.56615   0.19747   1.000
    C226    C    0.86331   0.55592   0.22638   1.000
    C227    C    0.87794   0.56881   0.20213   1.000
    O228    O    0.61124   0.50214   0.46103   1.000
    O229    O    0.77265   0.52525   0.36883   1.000
    O230    O    0.66370   0.48477   0.44352   1.000
    O231    O    0.81320   0.49673   0.38370   1.000
    O232    O    0.84773   0.47176   0.31969   1.000
    O233    O    0.95352   0.64681   0.25626   1.000
    O234    O    0.97946   0.64670   0.28098   1.000
    O235    O    0.90937   0.67277   0.28390   1.000
    O236    O    0.88647   0.65000   0.32149   1.000
    O237    O    0.79336   0.74940   0.24927   1.000
    O238    O    0.77143   0.72771   0.28867   1.000
    O239    O    0.79140   0.56556   0.33926   1.000
    O240    O    0.74604   0.70249   0.29346   1.000
    O241    O    0.86762   0.51111   0.29016   1.000
    O242    O    0.83264   0.53657   0.35332   1.000
    O243    O    0.93508   0.67227   0.30855   1.000
    O244    O    0.90414   0.59943   0.33907   1.000
    H245    H    0.57747   0.53902   0.47622   1.000
    H246    H    0.73515   0.51532   0.40917   1.000
    H247    H    0.69749   0.50073   0.43529   1.000
    H248    H    0.86577   0.42554   0.38695   1.000
    H249    H    0.79634   0.47131   0.43236   1.000
    H250    H    0.95064   0.66698   0.21061   1.000
    H251    H    0.97918   0.58290   0.23842   1.000
    H252    H    0.88199   0.70849   0.25374   1.000
    H253    H    0.84203   0.73557   0.24241   1.000
    H254    H    0.83819   0.66698   0.32917   1.000
    H255    H    0.79849   0.69394   0.31797   1.000
    H256    H    0.77561   0.61090   0.34107   1.000
    H257    H    0.75951   0.65835   0.32549   1.000
    H258    H    0.32917   0.83819   0.66698   1.000
    H259    H    0.31797   0.79849   0.69394   1.000
    H260    H    0.34107   0.77561   0.61090   1.000
    H261    H    0.32549   0.75951   0.65835   1.000
    H262    H    0.25730   0.90802   0.52408   1.000
    H263    H    0.21452   0.93376   0.54690   1.000
    H264    H    0.22928   0.84363   0.55895   1.000
    H265    H    0.18711   0.86898   0.58131   1.000
    C266    C    0.54723   0.42240   0.46092   1.000
    C267    C    0.51247   0.36102   0.39955   1.000
    C268    C    0.50403   0.37603   0.41455   1.000
    C269    C    0.42746   0.31679   0.40521   1.000
    C270    C    0.47489   0.31227   0.38220   1.000
    C271    C    0.45167   0.31089   0.40641   1.000
    C272    C    0.45304   0.30458   0.43068   1.000
    C273    C    0.64843   0.18594   0.20837   1.000
    C274    C    0.62501   0.15936   0.25305   1.000
    C275    C    0.62494   0.18218   0.22795   1.000
    C276    C    0.60143   0.20145   0.22390   1.000
    C277    C    0.70516   0.16297   0.26799   1.000
    C278    C    0.66831   0.14404   0.29961   1.000
    C279    C    0.68530   0.15870   0.29240   1.000
    C280    C    0.72083   0.17681   0.26152   1.000
    C281    C    0.73261   0.20310   0.27199   1.000
    C282    C    0.71726   0.18675   0.27927   1.000
    C283    C    0.68190   0.16851   0.31016   1.000
    C284    C    0.69757   0.18222   0.30374   1.000
    C285    C    0.62099   0.28425   0.32264   1.000
    C286    C    0.64841   0.27520   0.31363   1.000
    C287    C    0.53632   0.32224   0.24194   1.000
    C288    C    0.52830   0.34166   0.27304   1.000
    C289    C    0.53987   0.33972   0.24672   1.000
    C290    C    0.54938   0.31889   0.21750   1.000
    C291    C    0.66808   0.07796   0.33257   1.000
    C292    C    0.56615   0.33299   0.19747   1.000
    C293    C    0.55592   0.35438   0.22638   1.000
    C294    C    0.56881   0.35111   0.20213   1.000
    O295    O    0.50214   0.42559   0.46103   1.000
    O296    O    0.52525   0.33327   0.36883   1.000
    O297    O    0.48477   0.40801   0.44352   1.000
    O298    O    0.49673   0.30637   0.38370   1.000
    O299    O    0.47176   0.36082   0.31969   1.000
    O300    O    0.64681   0.14341   0.25626   1.000
    O301    O    0.64670   0.09285   0.28098   1.000
    O302    O    0.67277   0.13396   0.28390   1.000
    O303    O    0.65000   0.14205   0.32149   1.000
    O304    O    0.74940   0.20797   0.24927   1.000
    O305    O    0.72771   0.21218   0.28867   1.000
    O306    O    0.56556   0.30379   0.33926   1.000
    O307    O    0.70249   0.25801   0.29346   1.000
    O308    O    0.51111   0.33112   0.29016   1.000
    O309    O    0.53657   0.27746   0.35332   1.000
    O310    O    0.67227   0.08410   0.30855   1.000
    O311    O    0.59943   0.15737   0.33907   1.000
    H312    H    0.53902   0.40729   0.47622   1.000
    H313    H    0.51532   0.34037   0.40917   1.000
    H314    H    0.50073   0.36649   0.43529   1.000
    H315    H    0.42554   0.32174   0.38695   1.000
    H316    H    0.47131   0.29999   0.43236   1.000
    H317    H    0.66698   0.17176   0.21061   1.000
    H318    H    0.58290   0.19950   0.23842   1.000
    H319    H    0.70849   0.15579   0.25374   1.000
    H320    H    0.73557   0.17998   0.24241   1.000
    H321    H    0.66698   0.16567   0.32917   1.000
    H322    H    0.69394   0.18961   0.31797   1.000
    H323    H    0.61090   0.27242   0.34107   1.000
    H324    H    0.65835   0.25665   0.32549   1.000
    H325    H    0.52408   0.31059   0.25730   1.000
    H326    H    0.54690   0.30483   0.21452   1.000
    H327    H    0.55895   0.36814   0.22928   1.000
    H328    H    0.58131   0.36260   0.18711   1.000
    C329    C    0.56944   0.46092   0.42240   1.000
    C330    C    0.72696   0.39955   0.36102   1.000
    C331    C    0.70539   0.41455   0.37603   1.000
    C332    C    0.85054   0.40521   0.31679   1.000
    C333    C    0.83063   0.38220   0.31227   1.000
    C334    C    0.83104   0.40641   0.31089   1.000
    C335    C    0.81170   0.43068   0.30458   1.000
    C336    C    0.95726   0.20837   0.18594   1.000
    C337    C    0.96258   0.25305   0.15936   1.000
    C338    C    0.96494   0.22795   0.18218   1.000
    C339    C    0.97322   0.22390   0.20145   1.000
    C340    C    0.86389   0.26799   0.16297   1.000
    C341    C    0.88804   0.29961   0.14404   1.000
    C342    C    0.86360   0.29240   0.15870   1.000
    C343    C    0.84085   0.26152   0.17681   1.000
    C344    C    0.79230   0.27199   0.20310   1.000
    C345    C    0.81672   0.27927   0.18675   1.000
    C346    C    0.83943   0.31016   0.16851   1.000
    C347    C    0.81647   0.30374   0.18222   1.000
    C348    C    0.77212   0.32264   0.28425   1.000
    C349    C    0.76276   0.31363   0.27520   1.000
    C350    C    0.89950   0.24194   0.32224   1.000
    C351    C    0.85700   0.27304   0.34166   1.000
    C352    C    0.87369   0.24672   0.33972   1.000
    C353    C    0.91423   0.21750   0.31889   1.000
    C354    C    0.92138   0.33257   0.07796   1.000
    C355    C    0.90339   0.19747   0.33299   1.000
    C356    C    0.86331   0.22638   0.35438   1.000
    C357    C    0.87794   0.20213   0.35111   1.000
    O358    O    0.61124   0.46103   0.42559   1.000
    O359    O    0.77265   0.36883   0.33327   1.000
    O360    O    0.66370   0.44352   0.40801   1.000
    O361    O    0.81320   0.38370   0.30637   1.000
    O362    O    0.84773   0.31969   0.36082   1.000
    O363    O    0.95352   0.25626   0.14341   1.000
    O364    O    0.97946   0.28098   0.09285   1.000
    O365    O    0.90937   0.28390   0.13396   1.000
    O366    O    0.88647   0.32149   0.14205   1.000
    O367    O    0.79336   0.24927   0.20797   1.000
    O368    O    0.77143   0.28867   0.21218   1.000
    O369    O    0.79140   0.33926   0.30379   1.000
    O370    O    0.74604   0.29346   0.25801   1.000
    O371    O    0.86762   0.29016   0.33112   1.000
    O372    O    0.83264   0.35332   0.27746   1.000
    O373    O    0.93508   0.30855   0.08410   1.000
    O374    O    0.90414   0.33907   0.15737   1.000
    H375    H    0.57747   0.47622   0.40729   1.000
    H376    H    0.73515   0.40917   0.34037   1.000
    H377    H    0.69749   0.43529   0.36649   1.000
    H378    H    0.86577   0.38695   0.32174   1.000
    H379    H    0.79634   0.43236   0.29999   1.000
    H380    H    0.95064   0.21061   0.17176   1.000
    H381    H    0.97918   0.23842   0.19950   1.000
    H382    H    0.88199   0.25374   0.15579   1.000
    H383    H    0.84203   0.24241   0.17998   1.000
    H384    H    0.83819   0.32917   0.16567   1.000
    H385    H    0.79849   0.31797   0.18961   1.000
    H386    H    0.77561   0.34107   0.27242   1.000
    H387    H    0.75951   0.32549   0.25665   1.000
    H388    H    0.90802   0.25730   0.31059   1.000
    H389    H    0.93376   0.21452   0.30483   1.000
    H390    H    0.84363   0.22928   0.36814   1.000
    H391    H    0.86898   0.18711   0.36260   1.000
    C392    C    0.42240   0.54723   0.56944   1.000
    C393    C    0.36102   0.51247   0.72696   1.000
    C394    C    0.37603   0.50403   0.70539   1.000
    C395    C    0.31679   0.42746   0.85054   1.000
    C396    C    0.31227   0.47489   0.83063   1.000
    C397    C    0.08703   0.98201   0.38611   1.000
    C398    C    0.10596   0.95039   0.36196   1.000
    C399    C    0.09130   0.95760   0.38640   1.000
    C400    C    0.07319   0.98848   0.40915   1.000
    C401    C    0.04690   0.97801   0.45770   1.000
    C402    C    0.06325   0.97073   0.43328   1.000
    C403    C    0.08149   0.93984   0.41057   1.000
    C404    C    0.06778   0.94626   0.43353   1.000
    C405    C    0.96575   0.92736   0.47788   1.000
    C406    C    0.97480   0.93637   0.48724   1.000
    C407    C    0.92776   0.00806   0.35050   1.000
    C408    C    0.90834   0.97696   0.39300   1.000
    C409    C    0.16297   0.70516   0.86389   1.000
    C410    C    0.14404   0.66831   0.88804   1.000
    C411    C    0.15870   0.68530   0.86360   1.000
    C412    C    0.17681   0.72083   0.84085   1.000
    C413    C    0.20310   0.73261   0.79230   1.000
    C414    C    0.18675   0.71726   0.81672   1.000
    C415    C    0.16851   0.68190   0.83943   1.000
    C416    C    0.18222   0.69757   0.81647   1.000
    C417    C    0.28425   0.62099   0.77212   1.000
    C418    C    0.27520   0.64841   0.76276   1.000
    C419    C    0.32224   0.53632   0.89950   1.000
    C420    C    0.34166   0.52830   0.85700   1.000
    C421    C    0.33972   0.53987   0.87369   1.000
    C422    C    0.31889   0.54938   0.91423   1.000
    C423    C    0.07796   0.66808   0.92138   1.000
    C424    C    0.33299   0.56615   0.90339   1.000
    C425    C    0.35438   0.55592   0.86331   1.000
    C426    C    0.35111   0.56881   0.87794   1.000
    O427    O    0.42559   0.50214   0.61124   1.000
    O428    O    0.33327   0.52525   0.77265   1.000
    O429    O    0.40801   0.48477   0.66370   1.000
    O430    O    0.30637   0.49673   0.81320   1.000
    O431    O    0.36082   0.47176   0.84773   1.000
    O432    O    0.14341   0.64681   0.95352   1.000
    O433    O    0.09285   0.64670   0.97946   1.000
    O434    O    0.13396   0.67277   0.90937   1.000
    O435    O    0.14205   0.65000   0.88647   1.000
    O436    O    0.20797   0.74940   0.79336   1.000
    O437    O    0.21218   0.72771   0.77143   1.000
    O438    O    0.30379   0.56556   0.79140   1.000
    O439    O    0.25801   0.70249   0.74604   1.000
    O440    O    0.33112   0.51111   0.86762   1.000
    O441    O    0.27746   0.53657   0.83264   1.000
    O442    O    0.08410   0.67227   0.93508   1.000
    O443    O    0.15737   0.59943   0.90414   1.000
    H444    H    0.40729   0.53902   0.57747   1.000
    H445    H    0.34037   0.51532   0.73515   1.000
    H446    H    0.36649   0.50073   0.69749   1.000
    H447    H    0.32174   0.42554   0.86577   1.000
    H448    H    0.29999   0.47131   0.79634   1.000
    H449    H    0.17176   0.66698   0.95064   1.000
    H450    H    0.19950   0.58290   0.97918   1.000
    H451    H    0.15579   0.70849   0.88199   1.000
    H452    H    0.17998   0.73557   0.84203   1.000
    H453    H    0.16567   0.66698   0.83819   1.000
    H454    H    0.18961   0.69394   0.79849   1.000
    H455    H    0.27242   0.61090   0.77561   1.000
    H456    H    0.25665   0.65835   0.75951   1.000
    H457    H    0.31059   0.52408   0.90802   1.000
    H458    H    0.30483   0.54690   0.93376   1.000
    H459    H    0.36814   0.55895   0.84363   1.000
    H460    H    0.36260   0.58131   0.86898   1.000
    C461    C    0.46092   0.56944   0.54723   1.000
    C462    C    0.39955   0.72696   0.51247   1.000
    C463    C    0.41455   0.70539   0.50403   1.000
    C464    C    0.40521   0.85054   0.42746   1.000
    C465    C    0.38220   0.83063   0.47489   1.000
    C466    C    0.40641   0.83104   0.45167   1.000
    C467    C    0.43068   0.81170   0.45304   1.000
    C468    C    0.20837   0.95726   0.64843   1.000
    C469    C    0.25305   0.96258   0.62501   1.000
    C470    C    0.22795   0.96494   0.62494   1.000
    C471    C    0.22390   0.97322   0.60143   1.000
    C472    C    0.26799   0.86389   0.70516   1.000
    C473    C    0.29961   0.88804   0.66831   1.000
    C474    C    0.29240   0.86360   0.68530   1.000
    C475    C    0.26152   0.84085   0.72083   1.000
    C476    C    0.27199   0.79230   0.73261   1.000
    C477    C    0.27927   0.81672   0.71726   1.000
    C478    C    0.31016   0.83943   0.68190   1.000
    C479    C    0.30374   0.81647   0.69757   1.000
    C480    C    0.32264   0.77212   0.62099   1.000
    C481    C    0.31363   0.76276   0.64841   1.000
    C482    C    0.24194   0.89950   0.53632   1.000
    C483    C    0.27304   0.85700   0.52830   1.000
    C484    C    0.24672   0.87369   0.53987   1.000
    C485    C    0.21750   0.91423   0.54938   1.000
    C486    C    0.33257   0.92138   0.66808   1.000
    C487    C    0.19747   0.90339   0.56615   1.000
    C488    C    0.22638   0.86331   0.55592   1.000
    C489    C    0.20213   0.87794   0.56881   1.000
    O490    O    0.46103   0.61124   0.50214   1.000
    O491    O    0.36883   0.77265   0.52525   1.000
    O492    O    0.44352   0.66370   0.48477   1.000
    O493    O    0.38370   0.81320   0.49673   1.000
    O494    O    0.31969   0.84773   0.47176   1.000
    O495    O    0.25626   0.95352   0.64681   1.000
    O496    O    0.28098   0.97946   0.64670   1.000
    O497    O    0.28390   0.90937   0.67277   1.000
    O498    O    0.32149   0.88647   0.65000   1.000
    O499    O    0.24927   0.79336   0.74940   1.000
    O500    O    0.28867   0.77143   0.72771   1.000
    O501    O    0.33926   0.79140   0.56556   1.000
    O502    O    0.29346   0.74604   0.70249   1.000
    O503    O    0.29016   0.86762   0.51111   1.000
    O504    O    0.35332   0.83264   0.53657   1.000
    O505    O    0.30855   0.93508   0.67227   1.000
    O506    O    0.33907   0.90414   0.59943   1.000
    H507    H    0.47622   0.57747   0.53902   1.000
    H508    H    0.40917   0.73515   0.51532   1.000
    H509    H    0.43529   0.69749   0.50073   1.000
    H510    H    0.38695   0.86577   0.42554   1.000
    H511    H    0.43236   0.79634   0.47131   1.000
    H512    H    0.21061   0.95064   0.66698   1.000
    H513    H    0.23842   0.97918   0.58290   1.000
    H514    H    0.25374   0.88199   0.70849   1.000
    H515    H    0.24241   0.84203   0.73557   1.000
    H516    H    0.51485   0.73468   0.90963   1.000
    H517    H    0.55251   0.74927   0.88351   1.000
    H518    H    0.38423   0.82446   0.92826   1.000
    H519    H    0.45366   0.77869   0.95001   1.000
    H520    H    0.29936   0.58302   0.07824   1.000
    H521    H    0.27082   0.66710   0.05050   1.000
    H522    H    0.36801   0.54151   0.09421   1.000
    H523    H    0.40797   0.51443   0.07002   1.000
    H524    H    0.41181   0.58302   0.08433   1.000
    H525    H    0.45151   0.55606   0.06039   1.000
    H526    H    0.47439   0.63910   0.97758   1.000
    H527    H    0.49049   0.59165   0.99335   1.000
    H528    H    0.34198   0.72592   0.93941   1.000
    H529    H    0.31624   0.70310   0.94517   1.000
    H530    H    0.40637   0.69105   0.88186   1.000
    H531    H    0.38102   0.66869   0.88740   1.000
    C532    C    0.46092   0.54723   0.42240   1.000
    C533    C    0.39955   0.51247   0.36102   1.000
    C534    C    0.41455   0.50403   0.37603   1.000
    C535    C    0.40521   0.42746   0.31679   1.000
    C536    C    0.38220   0.47489   0.31227   1.000
    C537    C    0.40641   0.45167   0.31089   1.000
    C538    C    0.43068   0.45304   0.30458   1.000
    C539    C    0.20837   0.64843   0.18594   1.000
    C540    C    0.25305   0.62501   0.15936   1.000
    C541    C    0.22795   0.62494   0.18218   1.000
    C542    C    0.22390   0.60143   0.20145   1.000
    C543    C    0.26799   0.70516   0.16297   1.000
    C544    C    0.29961   0.66831   0.14404   1.000
    C545    C    0.29240   0.68530   0.15870   1.000
    C546    C    0.26152   0.72083   0.17681   1.000
    C547    C    0.27199   0.73261   0.20310   1.000
    C548    C    0.27927   0.71726   0.18675   1.000
    C549    C    0.31016   0.68190   0.16851   1.000
    C550    C    0.30374   0.69757   0.18222   1.000
    C551    C    0.32264   0.62099   0.28425   1.000
    C552    C    0.31363   0.64841   0.27520   1.000
    C553    C    0.24194   0.53632   0.32224   1.000
    C554    C    0.27304   0.52830   0.34166   1.000
    C555    C    0.24672   0.53987   0.33972   1.000
    C556    C    0.21750   0.54938   0.31889   1.000
    C557    C    0.33257   0.66808   0.07796   1.000
    C558    C    0.19747   0.56615   0.33299   1.000
    C559    C    0.22638   0.55592   0.35438   1.000
    C560    C    0.20213   0.56881   0.35111   1.000
    O561    O    0.46103   0.50214   0.42559   1.000
    O562    O    0.36883   0.52525   0.33327   1.000
    O563    O    0.44352   0.48477   0.40801   1.000
    O564    O    0.38370   0.49673   0.30637   1.000
    O565    O    0.31969   0.47176   0.36082   1.000
    O566    O    0.25626   0.64681   0.14341   1.000
    O567    O    0.28098   0.64670   0.09285   1.000
    O568    O    0.28390   0.67277   0.13396   1.000
    O569    O    0.32149   0.65000   0.14205   1.000
    O570    O    0.24927   0.74940   0.20797   1.000
    O571    O    0.28867   0.72771   0.21218   1.000
    O572    O    0.33926   0.56556   0.30379   1.000
    O573    O    0.29346   0.70249   0.25801   1.000
    O574    O    0.29016   0.51111   0.33112   1.000
    O575    O    0.35332   0.53657   0.27746   1.000
    O576    O    0.30855   0.67227   0.08410   1.000
    O577    O    0.33907   0.59943   0.15737   1.000
    H578    H    0.47622   0.53902   0.40729   1.000
    H579    H    0.40917   0.51532   0.34037   1.000
    H580    H    0.43529   0.50073   0.36649   1.000
    H581    H    0.38695   0.42554   0.32174   1.000
    H582    H    0.43236   0.47131   0.29999   1.000
    H583    H    0.21061   0.66698   0.17176   1.000
    H584    H    0.23842   0.58290   0.19950   1.000
    H585    H    0.25374   0.70849   0.15579   1.000
    H586    H    0.24241   0.73557   0.17998   1.000
    H587    H    0.32917   0.66698   0.16567   1.000
    H588    H    0.31797   0.69394   0.18961   1.000
    H589    H    0.34107   0.61090   0.27242   1.000
    H590    H    0.32549   0.65835   0.25665   1.000
    H591    H    0.25730   0.52408   0.31059   1.000
    H592    H    0.21452   0.54690   0.30483   1.000
    H593    H    0.22928   0.55895   0.36814   1.000
    H594    H    0.18711   0.58131   0.36260   1.000
    C595    C    0.42240   0.56944   0.46092   1.000
    C596    C    0.36102   0.72696   0.39955   1.000
    C597    C    0.37603   0.70539   0.41455   1.000
    C598    C    0.31679   0.85054   0.40521   1.000
    C599    C    0.31227   0.83063   0.38220   1.000
    C600    C    0.31089   0.83104   0.40641   1.000
    C601    C    0.30458   0.81170   0.43068   1.000
    C602    C    0.18594   0.95726   0.20837   1.000
    C603    C    0.15936   0.96258   0.25305   1.000
    C604    C    0.18218   0.96494   0.22795   1.000
    C605    C    0.20145   0.97322   0.22390   1.000
    C606    C    0.16297   0.86389   0.26799   1.000
    C607    C    0.14404   0.88804   0.29961   1.000
    C608    C    0.15870   0.86360   0.29240   1.000
    C609    C    0.17681   0.84085   0.26152   1.000
    C610    C    0.20310   0.79230   0.27199   1.000
    C611    C    0.18675   0.81672   0.27927   1.000
    C612    C    0.16851   0.83943   0.31016   1.000
    C613    C    0.18222   0.81647   0.30374   1.000
    C614    C    0.28425   0.77212   0.32264   1.000
    C615    C    0.27520   0.76276   0.31363   1.000
    C616    C    0.32224   0.89950   0.24194   1.000
    C617    C    0.34166   0.85700   0.27304   1.000
    C618    C    0.33972   0.87369   0.24672   1.000
    C619    C    0.31889   0.91423   0.21750   1.000
    C620    C    0.07796   0.92138   0.33257   1.000
    C621    C    0.33299   0.90339   0.19747   1.000
    C622    C    0.35438   0.86331   0.22638   1.000
    C623    C    0.35111   0.87794   0.20213   1.000
    O624    O    0.42559   0.61124   0.46103   1.000
    O625    O    0.33327   0.77265   0.36883   1.000
    O626    O    0.40801   0.66370   0.44352   1.000
    O627    O    0.30637   0.81320   0.38370   1.000
    O628    O    0.36082   0.84773   0.31969   1.000
    O629    O    0.14341   0.95352   0.25626   1.000
    O630    O    0.09285   0.97946   0.28098   1.000
    O631    O    0.13396   0.90937   0.28390   1.000
    O632    O    0.14205   0.88647   0.32149   1.000
    O633    O    0.20797   0.79336   0.24927   1.000
    O634    O    0.21218   0.77143   0.28867   1.000
    O635    O    0.30379   0.79140   0.33926   1.000
    O636    O    0.25801   0.74604   0.29346   1.000
    O637    O    0.33112   0.86762   0.29016   1.000
    O638    O    0.27746   0.83264   0.35332   1.000
    O639    O    0.08410   0.93508   0.30855   1.000
    O640    O    0.15737   0.90414   0.33907   1.000
    H641    H    0.40729   0.57747   0.47622   1.000
    H642    H    0.34037   0.73515   0.40917   1.000
    H643    H    0.36649   0.69749   0.43529   1.000
    H644    H    0.32174   0.86577   0.38695   1.000
    H645    H    0.29999   0.79634   0.43236   1.000
    H646    H    0.17176   0.95064   0.21061   1.000
    H647    H    0.19950   0.97918   0.23842   1.000
    H648    H    0.15579   0.88199   0.25374   1.000
    H649    H    0.17998   0.84203   0.24241   1.000
    H650    H    0.16567   0.83819   0.32917   1.000
    H651    H    0.18961   0.79849   0.31797   1.000
    H652    H    0.27242   0.77561   0.34107   1.000
    H653    H    0.25665   0.75951   0.32549   1.000
    H654    H    0.31059   0.90802   0.25730   1.000
    H655    H    0.30483   0.93376   0.21452   1.000
    H656    H    0.36814   0.84363   0.22928   1.000
    H657    H    0.36260   0.86898   0.18711   1.000
    C658    C    0.56944   0.42240   0.54723   1.000
    C659    C    0.72696   0.36102   0.51247   1.000
    C660    C    0.70539   0.37603   0.50403   1.000
    C661    C    0.85054   0.31679   0.42746   1.000
    C662    C    0.83063   0.31227   0.47489   1.000
    C663    C    0.83104   0.31089   0.45167   1.000
    C664    C    0.81170   0.30458   0.45304   1.000
    C665    C    0.95726   0.18594   0.64843   1.000
    C666    C    0.96258   0.15936   0.62501   1.000
    C667    C    0.96494   0.18218   0.62494   1.000
    C668    C    0.97322   0.20145   0.60143   1.000
    C669    C    0.86389   0.16297   0.70516   1.000
    C670    C    0.88804   0.14404   0.66831   1.000
    C671    C    0.86360   0.15870   0.68530   1.000
    C672    C    0.84085   0.17681   0.72083   1.000
    C673    C    0.79230   0.20310   0.73261   1.000
    C674    C    0.81672   0.18675   0.71726   1.000
    C675    C    0.83943   0.16851   0.68190   1.000
    C676    C    0.81647   0.18222   0.69757   1.000
    C677    C    0.77212   0.28425   0.62099   1.000
    C678    C    0.76276   0.27520   0.64841   1.000
    C679    C    0.89950   0.32224   0.53632   1.000
    C680    C    0.85700   0.34166   0.52830   1.000
    C681    C    0.87369   0.33972   0.53987   1.000
    C682    C    0.91423   0.31889   0.54938   1.000
    C683    C    0.92138   0.07796   0.66808   1.000
    C684    C    0.90339   0.33299   0.56615   1.000
    C685    C    0.86331   0.35438   0.55592   1.000
    C686    C    0.87794   0.35111   0.56881   1.000
    O687    O    0.61124   0.42559   0.50214   1.000
    O688    O    0.77265   0.33327   0.52525   1.000
    O689    O    0.66370   0.40801   0.48477   1.000
    O690    O    0.81320   0.30637   0.49673   1.000
    O691    O    0.84773   0.36082   0.47176   1.000
    O692    O    0.95352   0.14341   0.64681   1.000
    O693    O    0.97946   0.09285   0.64670   1.000
    O694    O    0.90937   0.13396   0.67277   1.000
    O695    O    0.88647   0.14205   0.65000   1.000
    O696    O    0.79336   0.20797   0.74940   1.000
    O697    O    0.77143   0.21218   0.72771   1.000
    O698    O    0.79140   0.30379   0.56556   1.000
    O699    O    0.74604   0.25801   0.70249   1.000
    O700    O    0.86762   0.33112   0.51111   1.000
    O701    O    0.83264   0.27746   0.53657   1.000
    O702    O    0.93508   0.08410   0.67227   1.000
    O703    O    0.90414   0.15737   0.59943   1.000
    H704    H    0.57747   0.40729   0.53902   1.000
    H705    H    0.73515   0.34037   0.51532   1.000
    H706    H    0.69749   0.36649   0.50073   1.000
    H707    H    0.86577   0.32174   0.42554   1.000
    H708    H    0.79634   0.29999   0.47131   1.000
    H709    H    0.95064   0.17176   0.66698   1.000
    H710    H    0.97918   0.19950   0.58290   1.000
    H711    H    0.88199   0.15579   0.70849   1.000
    H712    H    0.84203   0.17998   0.73557   1.000
    H713    H    0.83819   0.16567   0.66698   1.000
    H714    H    0.79849   0.18961   0.69394   1.000
    H715    H    0.77561   0.27242   0.61090   1.000
    H716    H    0.75951   0.25665   0.65835   1.000
    H717    H    0.90802   0.31059   0.52408   1.000
    H718    H    0.93376   0.30483   0.54690   1.000
    H719    H    0.84363   0.36814   0.55895   1.000
    H720    H    0.86898   0.36260   0.58131   1.000
    C721    C    0.54723   0.46092   0.56944   1.000
    C722    C    0.51247   0.39955   0.72696   1.000
    C723    C    0.50403   0.41455   0.70539   1.000
    C724    C    0.42746   0.40521   0.85054   1.000
    C725    C    0.47489   0.38220   0.83063   1.000
    C726    C    0.45167   0.40641   0.83104   1.000
    C727    C    0.45304   0.43068   0.81170   1.000
    C728    C    0.64843   0.20837   0.95726   1.000
    C729    C    0.62501   0.25305   0.96258   1.000
    C730    C    0.62494   0.22795   0.96494   1.000
    C731    C    0.60143   0.22390   0.97322   1.000
    C732    C    0.70516   0.26799   0.86389   1.000
    C733    C    0.66831   0.29961   0.88804   1.000
    C734    C    0.68530   0.29240   0.86360   1.000
    C735    C    0.72083   0.26152   0.84085   1.000
    C736    C    0.73261   0.27199   0.79230   1.000
    C737    C    0.71726   0.27927   0.81672   1.000
    C738    C    0.68190   0.31016   0.83943   1.000
    C739    C    0.69757   0.30374   0.81647   1.000
    C740    C    0.62099   0.32264   0.77212   1.000
    C741    C    0.64841   0.31363   0.76276   1.000
    C742    C    0.53632   0.24194   0.89950   1.000
    C743    C    0.52830   0.27304   0.85700   1.000
    C744    C    0.53987   0.24672   0.87369   1.000
    C745    C    0.54938   0.21750   0.91423   1.000
    C746    C    0.66808   0.33257   0.92138   1.000
    C747    C    0.56615   0.19747   0.90339   1.000
    C748    C    0.55592   0.22638   0.86331   1.000
    C749    C    0.56881   0.20213   0.87794   1.000
    O750    O    0.50214   0.46103   0.61124   1.000
    O751    O    0.52525   0.36883   0.77265   1.000
    O752    O    0.48477   0.44352   0.66370   1.000
    O753    O    0.49673   0.38370   0.81320   1.000
    O754    O    0.47176   0.31969   0.84773   1.000
    O755    O    0.64681   0.25626   0.95352   1.000
    O756    O    0.64670   0.28098   0.97946   1.000
    O757    O    0.67277   0.28390   0.90937   1.000
    O758    O    0.65000   0.32149   0.88647   1.000
    O759    O    0.74940   0.24927   0.79336   1.000
    O760    O    0.72771   0.28867   0.77143   1.000
    O761    O    0.56556   0.33926   0.79140   1.000
    O762    O    0.70249   0.29346   0.74604   1.000
    O763    O    0.51111   0.29016   0.86762   1.000
    O764    O    0.53657   0.35332   0.83264   1.000
    O765    O    0.67227   0.30855   0.93508   1.000
    O766    O    0.59943   0.33907   0.90414   1.000
    H767    H    0.53902   0.47622   0.57747   1.000
    H768    H    0.51532   0.40917   0.73515   1.000
    H769    H    0.50073   0.43529   0.69749   1.000
    H770    H    0.42554   0.38695   0.86577   1.000
    H771    H    0.47131   0.43236   0.79634   1.000
    H772    H    0.66698   0.21061   0.95064   1.000
    H773    H    0.58290   0.23842   0.97918   1.000
    H774    H    0.70849   0.25374   0.88199   1.000
    H775    H    0.73557   0.24241   0.84203   1.000
    H776    H    0.66698   0.32917   0.83819   1.000
    H777    H    0.69394   0.31797   0.79849   1.000
    H778    H    0.61090   0.34107   0.77561   1.000
    H779    H    0.65835   0.32549   0.75951   1.000
    H780    H    0.52408   0.25730   0.90802   1.000
    H781    H    0.54690   0.21452   0.93376   1.000
    H782    H    0.55895   0.22928   0.84363   1.000
    H783    H    0.58131   0.18711   0.86898   1.000
    C784    C    0.82760   0.78908   0.68056   1.000
    C785    C    0.88898   0.85045   0.52304   1.000
    C786    C    0.87397   0.83545   0.54461   1.000
    C787    C    0.93321   0.84479   0.39946   1.000
    C788    C    0.93773   0.86780   0.41937   1.000
    C789    C    0.93911   0.84359   0.41896   1.000
    C790    C    0.94542   0.81932   0.43830   1.000
    C791    C    0.06406   0.04163   0.29274   1.000
    C792    C    0.09064   0.99695   0.28742   1.000
    C793    C    0.06782   0.02205   0.28506   1.000
    C794    C    0.04855   0.02610   0.27678   1.000
    C795    C    0.91028   0.00328   0.71013   1.000
    C796    C    0.93111   0.03250   0.70062   1.000
    C797    C    0.17204   0.91743   0.58192   1.000
    C798    C    0.91701   0.05253   0.68385   1.000
    C799    C    0.89562   0.02362   0.69408   1.000
    C800    C    0.89889   0.04787   0.68119   1.000
    O801    O    0.82441   0.78897   0.74786   1.000
    O802    O    0.91673   0.88117   0.72475   1.000
    O803    O    0.84199   0.80648   0.76523   1.000
    O804    O    0.94363   0.86630   0.75327   1.000
    O805    O    0.88918   0.93031   0.77824   1.000
    O806    O    0.10659   0.99374   0.60319   1.000
    O807    O    0.15715   0.96902   0.60330   1.000
    O808    O    0.11604   0.96610   0.57723   1.000
    O809    O    0.10795   0.92851   0.60000   1.000
    O810    O    0.04203   0.00073   0.50060   1.000
    O811    O    0.03782   0.96133   0.52229   1.000
    O812    O    0.94621   0.91074   0.68444   1.000
    O813    O    0.99199   0.95654   0.54751   1.000
    O814    O    0.91888   0.95984   0.73889   1.000
    O815    O    0.97254   0.89668   0.71343   1.000
    O816    O    0.16590   0.94145   0.57773   1.000
    O817    O    0.09263   0.91093   0.65057   1.000
    H818    H    0.84271   0.77378   0.71098   1.000
    C819    C    0.91028   0.00328   0.37631   1.000
    C820    C    0.93111   0.03250   0.33577   1.000
    C821    C    0.17204   0.91743   0.32862   1.000
    C822    C    0.91701   0.05253   0.34661   1.000
    C823    C    0.89562   0.02362   0.38669   1.000
    C824    C    0.89889   0.04787   0.37206   1.000
    O825    O    0.82441   0.78897   0.63876   1.000
    O826    O    0.91673   0.88117   0.47735   1.000
    O827    O    0.84199   0.80648   0.58630   1.000
    O828    O    0.94363   0.86630   0.43680   1.000
    O829    O    0.88918   0.93031   0.40227   1.000
    O830    O    0.10659   0.99374   0.29648   1.000
    O831    O    0.15715   0.96902   0.27054   1.000
    O832    O    0.11604   0.96610   0.34063   1.000
    O833    O    0.10795   0.92851   0.36353   1.000
    O834    O    0.04203   0.00073   0.45664   1.000
    O835    O    0.03782   0.96133   0.47857   1.000
    O836    O    0.94621   0.91074   0.45860   1.000
    O837    O    0.99199   0.95654   0.50396   1.000
    O838    O    0.91888   0.95984   0.38238   1.000
    O839    O    0.97254   0.89668   0.41736   1.000
    O840    O    0.16590   0.94145   0.31492   1.000
    O841    O    0.09263   0.91093   0.34586   1.000
    H842    H    0.84271   0.77378   0.67253   1.000
    H843    H    0.90963   0.84083   0.51485   1.000
    H844    H    0.88351   0.81471   0.55251   1.000
    H845    H    0.92826   0.86305   0.38423   1.000
    H846    H    0.95001   0.81764   0.45366   1.000
    H847    H    0.07824   0.03939   0.29936   1.000
    H848    H    0.05050   0.01158   0.27082   1.000
    H849    H    0.09421   0.99626   0.36801   1.000
    H850    H    0.07002   0.00759   0.40797   1.000
    H851    H    0.08433   0.92083   0.41181   1.000
    H852    H    0.06039   0.93203   0.45151   1.000
    H853    H    0.97758   0.90893   0.47439   1.000
    H854    H    0.99335   0.92451   0.49049   1.000
    H855    H    0.93941   0.99270   0.34198   1.000
    H856    H    0.94517   0.03548   0.31624   1.000
    H857    H    0.88186   0.02072   0.40637   1.000
    H858    H    0.88740   0.06289   0.38102   1.000
    C859    C    0.78908   0.82760   0.70277   1.000
    C860    C    0.85045   0.88898   0.73753   1.000
    C861    C    0.83545   0.87397   0.74597   1.000
    C862    C    0.84479   0.93321   0.82254   1.000
    C863    C    0.86780   0.93773   0.77511   1.000
    C864    C    0.84359   0.93911   0.79833   1.000
    C865    C    0.81932   0.94542   0.79696   1.000
    C866    C    0.04163   0.06406   0.60157   1.000
    C867    C    0.99695   0.09064   0.62499   1.000
    C868    C    0.02205   0.06782   0.62506   1.000
    C869    C    0.02610   0.04855   0.64857   1.000
    C870    C    0.98201   0.08703   0.54484   1.000
    C871    C    0.95039   0.10596   0.58169   1.000
    C872    C    0.95760   0.09130   0.56470   1.000
    C873    C    0.98848   0.07319   0.52917   1.000
    C874    C    0.97801   0.04690   0.51739   1.000
    C875    C    0.97073   0.06325   0.53274   1.000
    C876    C    0.93984   0.08149   0.56810   1.000
    C877    C    0.94626   0.06778   0.55243   1.000
    C878    C    0.92736   0.96575   0.62901   1.000
    C879    C    0.93637   0.97480   0.60159   1.000
    C880    C    0.00806   0.92776   0.71368   1.000
    C881    C    0.97696   0.90834   0.72170   1.000
    C882    C    0.00328   0.91028   0.71013   1.000
    C883    C    0.03250   0.93111   0.70062   1.000
    C884    C    0.91743   0.17204   0.58192   1.000
    C885    C    0.05253   0.91701   0.68385   1.000
    C886    C    0.02362   0.89562   0.69408   1.000
    C887    C    0.04787   0.89889   0.68119   1.000
    O888    O    0.78897   0.82441   0.74786   1.000
    O889    O    0.88117   0.91673   0.72475   1.000
    O890    O    0.80648   0.84199   0.76523   1.000
    O891    O    0.86630   0.94363   0.75327   1.000
    O892    O    0.93031   0.88918   0.77824   1.000
    O893    O    0.99374   0.10659   0.60319   1.000
    O894    O    0.96902   0.15715   0.60330   1.000
    O895    O    0.96610   0.11604   0.57723   1.000
    O896    O    0.92851   0.10795   0.60000   1.000
    O897    O    0.00073   0.04203   0.50060   1.000
    O898    O    0.96133   0.03782   0.52229   1.000
    O899    O    0.91074   0.94621   0.68444   1.000
    O900    O    0.95654   0.99199   0.54751   1.000
    O901    O    0.95984   0.91888   0.73889   1.000
    O902    O    0.89668   0.97254   0.71343   1.000
    O903    O    0.94145   0.16590   0.57773   1.000
    O904    O    0.91093   0.09263   0.65057   1.000
    H905    H    0.77378   0.84271   0.71098   1.000
    H906    H    0.84083   0.90963   0.73468   1.000
    H907    H    0.81471   0.88351   0.74927   1.000
    H908    H    0.86305   0.92826   0.82446   1.000
    H909    H    0.81764   0.95001   0.77869   1.000
    H910    H    0.03939   0.07824   0.58302   1.000
    H911    H    0.01158   0.05050   0.66710   1.000
    H912    H    0.99626   0.09421   0.54151   1.000
    H913    H    0.00759   0.07002   0.51443   1.000
    H914    H    0.92083   0.08433   0.58302   1.000
    H915    H    0.93203   0.06039   0.55606   1.000
    H916    H    0.90893   0.97758   0.63910   1.000
    H917    H    0.92451   0.99335   0.59165   1.000
    H918    H    0.99270   0.93941   0.72592   1.000
    H919    H    0.03548   0.94517   0.70310   1.000
    H920    H    0.02072   0.88186   0.69105   1.000
    H921    H    0.06289   0.88740   0.66869   1.000
    C922    C    0.70277   0.68056   0.78908   1.000
    C923    C    0.73753   0.52304   0.85045   1.000
    C924    C    0.74597   0.54461   0.83545   1.000
    C925    C    0.82254   0.39946   0.84479   1.000
    C926    C    0.77511   0.41937   0.86780   1.000
    C927    C    0.79833   0.41896   0.84359   1.000
    C928    C    0.79696   0.43830   0.81932   1.000
    C929    C    0.60157   0.29274   0.04163   1.000
    C930    C    0.62499   0.28742   0.99695   1.000
    C931    C    0.62506   0.28506   0.02205   1.000
    C932    C    0.64857   0.27678   0.02610   1.000
    C933    C    0.54484   0.38611   0.98201   1.000
    C934    C    0.58169   0.36196   0.95039   1.000
    C935    C    0.56470   0.38640   0.95760   1.000
    C936    C    0.52917   0.40915   0.98848   1.000
    C937    C    0.51739   0.45770   0.97801   1.000
    C938    C    0.53274   0.43328   0.97073   1.000
    C939    C    0.56810   0.41057   0.93984   1.000
    C940    C    0.55243   0.43353   0.94626   1.000
    C941    C    0.62901   0.47788   0.92736   1.000
    C942    C    0.60159   0.48724   0.93637   1.000
    C943    C    0.71368   0.35050   0.00806   1.000
    C944    C    0.72170   0.39300   0.97696   1.000
    C945    C    0.71013   0.37631   0.00328   1.000
    C946    C    0.70062   0.33577   0.03250   1.000
    C947    C    0.58192   0.32862   0.91743   1.000
    C948    C    0.68385   0.34661   0.05253   1.000
    C949    C    0.69408   0.38669   0.02362   1.000
    C950    C    0.68119   0.37206   0.04787   1.000
    O951    O    0.74786   0.63876   0.78897   1.000
    O952    O    0.72475   0.47735   0.88117   1.000
    O953    O    0.76523   0.58630   0.80648   1.000
    O954    O    0.75327   0.43680   0.86630   1.000
    O955    O    0.77824   0.40227   0.93031   1.000
    O956    O    0.60319   0.29648   0.99374   1.000
    O957    O    0.60330   0.27054   0.96902   1.000
    O958    O    0.57723   0.34063   0.96610   1.000
    O959    O    0.60000   0.36353   0.92851   1.000
    O960    O    0.50060   0.45664   0.00073   1.000
    O961    O    0.52229   0.47857   0.96133   1.000
    O962    O    0.68444   0.45860   0.91074   1.000
    O963    O    0.54751   0.50396   0.95654   1.000
    O964    O    0.73889   0.38238   0.95984   1.000
    O965    O    0.71343   0.41736   0.89668   1.000
    O966    O    0.57773   0.31492   0.94145   1.000
    O967    O    0.65057   0.34586   0.91093   1.000
    H968    H    0.71098   0.67253   0.77378   1.000
    H969    H    0.73468   0.51485   0.84083   1.000
    H970    H    0.74927   0.55251   0.81471   1.000
    H971    H    0.82446   0.38423   0.86305   1.000
    H972    H    0.77869   0.45366   0.81764   1.000
    H973    H    0.58302   0.29936   0.03939   1.000
    H974    H    0.66710   0.27082   0.01158   1.000
    H975    H    0.54151   0.36801   0.99626   1.000
    H976    H    0.51443   0.40797   0.00759   1.000
    H977    H    0.58302   0.41181   0.92083   1.000
    H978    H    0.55606   0.45151   0.93203   1.000
    H979    H    0.63910   0.47439   0.90893   1.000
    H980    H    0.59165   0.49049   0.92451   1.000
    H981    H    0.72592   0.34198   0.99270   1.000
    H982    H    0.70310   0.31624   0.03548   1.000
    H983    H    0.69105   0.40637   0.02072   1.000
    H984    H    0.66869   0.38102   0.06289   1.000
    C985    C    0.68056   0.70277   0.82760   1.000
    C986    C    0.52304   0.73753   0.88898   1.000
    C987    C    0.54461   0.74597   0.87397   1.000
    C988    C    0.39946   0.82254   0.93321   1.000
    C989    C    0.41937   0.77511   0.93773   1.000
    C990    C    0.41896   0.79833   0.93911   1.000
    C991    C    0.43830   0.79696   0.94542   1.000
    C992    C    0.29274   0.60157   0.06406   1.000
    C993    C    0.28742   0.62499   0.09064   1.000
    C994    C    0.28506   0.62506   0.06782   1.000
    C995    C    0.27678   0.64857   0.04855   1.000
    C996    C    0.38611   0.54484   0.08703   1.000
    C997    C    0.36196   0.58169   0.10596   1.000
    C998    C    0.38640   0.56470   0.09130   1.000
    C999    C    0.40915   0.52917   0.07319   1.000
    C1000   C    0.45770   0.51739   0.04690   1.000
    C1001   C    0.43328   0.53274   0.06325   1.000
    C1002   C    0.41057   0.56810   0.08149   1.000
    C1003   C    0.43353   0.55243   0.06778   1.000
    C1004   C    0.47788   0.62901   0.96575   1.000
    C1005   C    0.48724   0.60159   0.97480   1.000
    C1006   C    0.35050   0.71368   0.92776   1.000
    C1007   C    0.39300   0.72170   0.90834   1.000
    C1008   C    0.37631   0.71013   0.91028   1.000
    C1009   C    0.33577   0.70062   0.93111   1.000
    C1010   C    0.32862   0.58192   0.17204   1.000
    C1011   C    0.34661   0.68385   0.91701   1.000
    C1012   C    0.38669   0.69408   0.89562   1.000
    C1013   C    0.37206   0.68119   0.89889   1.000
    O1014   O    0.63876   0.74786   0.82441   1.000
    O1015   O    0.47735   0.72475   0.91673   1.000
    O1016   O    0.58630   0.76523   0.84199   1.000
    O1017   O    0.43680   0.75327   0.94363   1.000
    O1018   O    0.40227   0.77824   0.88918   1.000
    O1019   O    0.29648   0.60319   0.10659   1.000
    O1020   O    0.27054   0.60330   0.15715   1.000
    O1021   O    0.34063   0.57723   0.11604   1.000
    O1022   O    0.36353   0.60000   0.10795   1.000
    O1023   O    0.45664   0.50060   0.04203   1.000
    O1024   O    0.47857   0.52229   0.03782   1.000
    O1025   O    0.45860   0.68444   0.94621   1.000
    O1026   O    0.50396   0.54751   0.99199   1.000
    O1027   O    0.38238   0.73889   0.91888   1.000
    O1028   O    0.41736   0.71343   0.97254   1.000
    O1029   O    0.31492   0.57773   0.16590   1.000
    O1030   O    0.34586   0.65057   0.09263   1.000
    H1031   H    0.67253   0.71098   0.84271   1.000
    O1032   O    0.80648   0.58630   0.76523   1.000
    O1033   O    0.86630   0.43680   0.75327   1.000
    O1034   O    0.93031   0.40227   0.77824   1.000
    O1035   O    0.99374   0.29648   0.60319   1.000
    O1036   O    0.96902   0.27054   0.60330   1.000
    O1037   O    0.96610   0.34063   0.57723   1.000
    O1038   O    0.92851   0.36353   0.60000   1.000
    O1039   O    0.00073   0.45664   0.50060   1.000
    O1040   O    0.96133   0.47857   0.52229   1.000
    O1041   O    0.91074   0.45860   0.68444   1.000
    O1042   O    0.95654   0.50396   0.54751   1.000
    O1043   O    0.95984   0.38238   0.73889   1.000
    O1044   O    0.89668   0.41736   0.71343   1.000
    O1045   O    0.94145   0.31492   0.57773   1.000
    O1046   O    0.91093   0.34586   0.65057   1.000
    H1047   H    0.77378   0.67253   0.71098   1.000
    H1048   H    0.84083   0.51485   0.73468   1.000
    H1049   H    0.81471   0.55251   0.74927   1.000
    H1050   H    0.86305   0.38423   0.82446   1.000
    H1051   H    0.81764   0.45366   0.77869   1.000
    H1052   H    0.03939   0.29936   0.58302   1.000
    H1053   H    0.01158   0.27082   0.66710   1.000
    H1054   H    0.99626   0.36801   0.54151   1.000
    H1055   H    0.00759   0.40797   0.51443   1.000
    H1056   H    0.92083   0.41181   0.58302   1.000
    H1057   H    0.93203   0.45151   0.55606   1.000
    H1058   H    0.90893   0.47439   0.63910   1.000
    H1059   H    0.92451   0.49049   0.59165   1.000
    H1060   H    0.99270   0.34198   0.72592   1.000
    H1061   H    0.03548   0.31624   0.70310   1.000
    H1062   H    0.02072   0.40637   0.69105   1.000
    H1063   H    0.06289   0.38102   0.66869   1.000
    C1064   C    0.70277   0.82760   0.68056   1.000
    C1065   C    0.73753   0.88898   0.52304   1.000
    C1066   C    0.74597   0.87397   0.54461   1.000
    C1067   C    0.82254   0.93321   0.39946   1.000
    C1068   C    0.77511   0.93773   0.41937   1.000
    C1069   C    0.79833   0.93911   0.41896   1.000
    C1070   C    0.79696   0.94542   0.43830   1.000
    C1071   C    0.60157   0.06406   0.29274   1.000
    C1072   C    0.62499   0.09064   0.28742   1.000
    C1073   C    0.62506   0.06782   0.28506   1.000
    C1074   C    0.64857   0.04855   0.27678   1.000
    C1075   C    0.54484   0.08703   0.38611   1.000
    C1076   C    0.58169   0.10596   0.36196   1.000
    C1077   C    0.56470   0.09130   0.38640   1.000
    C1078   C    0.52917   0.07319   0.40915   1.000
    C1079   C    0.51739   0.04690   0.45770   1.000
    C1080   C    0.53274   0.06325   0.43328   1.000
    C1081   C    0.56810   0.08149   0.41057   1.000
    C1082   C    0.55243   0.06778   0.43353   1.000
    C1083   C    0.62901   0.96575   0.47788   1.000
    C1084   C    0.60159   0.97480   0.48724   1.000
    C1085   C    0.71368   0.92776   0.35050   1.000
    C1086   C    0.72170   0.90834   0.39300   1.000
    C1087   C    0.71013   0.91028   0.37631   1.000
    C1088   C    0.70062   0.93111   0.33577   1.000
    C1089   C    0.58192   0.17204   0.32862   1.000
    C1090   C    0.68385   0.91701   0.34661   1.000
    C1091   C    0.69408   0.89562   0.38669   1.000
    C1092   C    0.68119   0.89889   0.37206   1.000
    O1093   O    0.74786   0.82441   0.63876   1.000
    O1094   O    0.72475   0.91673   0.47735   1.000
    O1095   O    0.76523   0.84199   0.58630   1.000
    O1096   O    0.75327   0.94363   0.43680   1.000
    O1097   O    0.77824   0.88918   0.40227   1.000
    O1098   O    0.60319   0.10659   0.29648   1.000
    O1099   O    0.60330   0.15715   0.27054   1.000
    O1100   O    0.57723   0.11604   0.34063   1.000
    O1101   O    0.60000   0.10795   0.36353   1.000
    O1102   O    0.50060   0.04203   0.45664   1.000
    O1103   O    0.52229   0.03782   0.47857   1.000
    O1104   O    0.68444   0.94621   0.45860   1.000
    O1105   O    0.54751   0.99199   0.50396   1.000
    O1106   O    0.73889   0.91888   0.38238   1.000
    O1107   O    0.71343   0.97254   0.41736   1.000
    O1108   O    0.57773   0.16590   0.31492   1.000
    O1109   O    0.65057   0.09263   0.34586   1.000
    H1110   H    0.71098   0.84271   0.67253   1.000
    H1111   H    0.73468   0.90963   0.51485   1.000
    H1112   H    0.74927   0.88351   0.55251   1.000
    H1113   H    0.82446   0.92826   0.38423   1.000
    H1114   H    0.77869   0.95001   0.45366   1.000
    H1115   H    0.58302   0.07824   0.29936   1.000
    H1116   H    0.66710   0.05050   0.27082   1.000
    H1117   H    0.54151   0.09421   0.36801   1.000
    H1118   H    0.51443   0.07002   0.40797   1.000
    H1119   H    0.58302   0.08433   0.41181   1.000
    H1120   H    0.55606   0.06039   0.45151   1.000
    H1121   H    0.63910   0.97758   0.47439   1.000
    H1122   H    0.59165   0.99335   0.49049   1.000
    H1123   H    0.72592   0.93941   0.34198   1.000
    H1124   H    0.70310   0.94517   0.31624   1.000
    H1125   H    0.69105   0.88186   0.40637   1.000
    H1126   H    0.66869   0.88740   0.38102   1.000
    C1127   C    0.68056   0.78908   0.70277   1.000
    C1128   C    0.52304   0.85045   0.73753   1.000
    C1129   C    0.54461   0.83545   0.74597   1.000
    C1130   C    0.39946   0.84479   0.82254   1.000
    C1131   C    0.41937   0.86780   0.77511   1.000
    C1132   C    0.41896   0.84359   0.79833   1.000
    C1133   C    0.43830   0.81932   0.79696   1.000
    C1134   C    0.29274   0.04163   0.60157   1.000
    C1135   C    0.28742   0.99695   0.62499   1.000
    C1136   C    0.28506   0.02205   0.62506   1.000
    C1137   C    0.27678   0.02610   0.64857   1.000
    C1138   C    0.38611   0.98201   0.54484   1.000
    C1139   C    0.36196   0.95039   0.58169   1.000
    C1140   C    0.38640   0.95760   0.56470   1.000
    C1141   C    0.40915   0.98848   0.52917   1.000
    C1142   C    0.45770   0.97801   0.51739   1.000
    C1143   C    0.43328   0.97073   0.53274   1.000
    C1144   C    0.41057   0.93984   0.56810   1.000
    C1145   C    0.43353   0.94626   0.55243   1.000
    C1146   C    0.47788   0.92736   0.62901   1.000
    C1147   C    0.48724   0.93637   0.60159   1.000
    C1148   C    0.35050   0.00806   0.71368   1.000
    C1149   C    0.39300   0.97696   0.72170   1.000
    C1150   C    0.37631   0.00328   0.71013   1.000
    C1151   C    0.33577   0.03250   0.70062   1.000
    C1152   C    0.32862   0.91743   0.58192   1.000
    C1153   C    0.34661   0.05253   0.68385   1.000
    C1154   C    0.38669   0.02362   0.69408   1.000
    C1155   C    0.37206   0.04787   0.68119   1.000
    O1156   O    0.63876   0.78897   0.74786   1.000
    O1157   O    0.47735   0.88117   0.72475   1.000
    O1158   O    0.58630   0.80648   0.76523   1.000
    O1159   O    0.43680   0.86630   0.75327   1.000
    O1160   O    0.40227   0.93031   0.77824   1.000
    O1161   O    0.29648   0.99374   0.60319   1.000
    O1162   O    0.27054   0.96902   0.60330   1.000
    O1163   O    0.34063   0.96610   0.57723   1.000
    O1164   O    0.36353   0.92851   0.60000   1.000
    O1165   O    0.45664   0.00073   0.50060   1.000
    O1166   O    0.47857   0.96133   0.52229   1.000
    O1167   O    0.45860   0.91074   0.68444   1.000
    O1168   O    0.50396   0.95654   0.54751   1.000
    O1169   O    0.38238   0.95984   0.73889   1.000
    O1170   O    0.41736   0.89668   0.71343   1.000
    O1171   O    0.31492   0.94145   0.57773   1.000
    O1172   O    0.34586   0.91093   0.65057   1.000
    H1173   H    0.67253   0.77378   0.71098   1.000
    H1174   H    0.51485   0.84083   0.73468   1.000
    H1175   H    0.55251   0.81471   0.74927   1.000
    H1176   H    0.38423   0.86305   0.82446   1.000
    H1177   H    0.45366   0.81764   0.77869   1.000
    H1178   H    0.29936   0.03939   0.58302   1.000
    H1179   H    0.27082   0.01158   0.66710   1.000
    H1180   H    0.36801   0.99626   0.54151   1.000
    H1181   H    0.40797   0.00759   0.51443   1.000
    H1182   H    0.41181   0.92083   0.58302   1.000
    H1183   H    0.45151   0.93203   0.55606   1.000
    H1184   H    0.47439   0.90893   0.63910   1.000
    H1185   H    0.49049   0.92451   0.59165   1.000
    H1186   H    0.34198   0.99270   0.72592   1.000
    H1187   H    0.31624   0.03548   0.70310   1.000
    H1188   H    0.40637   0.02072   0.69105   1.000
    H1189   H    0.38102   0.06289   0.66869   1.000
    C1190   C    0.82760   0.70277   0.78908   1.000
    C1191   C    0.88898   0.73753   0.85045   1.000
    C1192   C    0.87397   0.74597   0.83545   1.000
    C1193   C    0.93321   0.82254   0.84479   1.000
    C1194   C    0.93773   0.77511   0.86780   1.000
    C1195   C    0.93911   0.79833   0.84359   1.000
    C1196   C    0.94542   0.79696   0.81932   1.000
    C1197   C    0.06406   0.60157   0.04163   1.000
    C1198   C    0.09064   0.62499   0.99695   1.000
    C1199   C    0.06782   0.62506   0.02205   1.000
    C1200   C    0.04855   0.64857   0.02610   1.000
    C1201   C    0.08703   0.54484   0.98201   1.000
    C1202   C    0.10596   0.58169   0.95039   1.000
    C1203   C    0.09130   0.56470   0.95760   1.000
    C1204   C    0.07319   0.52917   0.98848   1.000
    C1205   C    0.04690   0.51739   0.97801   1.000
    C1206   C    0.06325   0.53274   0.97073   1.000
    C1207   C    0.08149   0.56810   0.93984   1.000
    C1208   C    0.06778   0.55243   0.94626   1.000
    C1209   C    0.96575   0.62901   0.92736   1.000
    C1210   C    0.97480   0.60159   0.93637   1.000
    C1211   C    0.92776   0.71368   0.00806   1.000
    C1212   C    0.90834   0.72170   0.97696   1.000
    C1213   C    0.91028   0.71013   0.00328   1.000
    C1214   C    0.93111   0.70062   0.03250   1.000
    C1215   C    0.17204   0.58192   0.91743   1.000
    C1216   C    0.91701   0.68385   0.05253   1.000
    C1217   C    0.89562   0.69408   0.02362   1.000
    C1218   C    0.89889   0.68119   0.04787   1.000
    O1219   O    0.82441   0.74786   0.78897   1.000
    O1220   O    0.91673   0.72475   0.88117   1.000
    O1221   O    0.84199   0.76523   0.80648   1.000
    O1222   O    0.94363   0.75327   0.86630   1.000
    O1223   O    0.88918   0.77824   0.93031   1.000
    O1224   O    0.10659   0.60319   0.99374   1.000
    O1225   O    0.15715   0.60330   0.96902   1.000
    O1226   O    0.11604   0.57723   0.96610   1.000
    O1227   O    0.10795   0.60000   0.92851   1.000
    O1228   O    0.04203   0.50060   0.00073   1.000
    O1229   O    0.03782   0.52229   0.96133   1.000
    O1230   O    0.94621   0.68444   0.91074   1.000
    O1231   O    0.99199   0.54751   0.95654   1.000
    O1232   O    0.91888   0.73889   0.95984   1.000
    O1233   O    0.97254   0.71343   0.89668   1.000
    O1234   O    0.16590   0.57773   0.94145   1.000
    O1235   O    0.09263   0.65057   0.91093   1.000
    H1236   H    0.84271   0.71098   0.77378   1.000
    H1237   H    0.90963   0.73468   0.84083   1.000
    H1238   H    0.88351   0.74927   0.81471   1.000
    H1239   H    0.92826   0.82446   0.86305   1.000
    H1240   H    0.95001   0.77869   0.81764   1.000
    H1241   H    0.07824   0.58302   0.03939   1.000
    H1242   H    0.05050   0.66710   0.01158   1.000
    H1243   H    0.09421   0.54151   0.99626   1.000
    H1244   H    0.07002   0.51443   0.00759   1.000
    H1245   H    0.08433   0.58302   0.92083   1.000
    H1246   H    0.06039   0.55606   0.93203   1.000
    H1247   H    0.97758   0.63910   0.90893   1.000
    H1248   H    0.99335   0.59165   0.92451   1.000
    H1249   H    0.93941   0.72592   0.99270   1.000
    H1250   H    0.94517   0.70310   0.03548   1.000
    H1251   H    0.88186   0.69105   0.02072   1.000
    H1252   H    0.88740   0.66869   0.06289   1.000
    C1253   C    0.78908   0.68056   0.82760   1.000
    C1254   C    0.85045   0.52304   0.88898   1.000
    C1255   C    0.83545   0.54461   0.87397   1.000
    C1256   C    0.84479   0.39946   0.93321   1.000
    C1257   C    0.86780   0.41937   0.93773   1.000
    C1258   C    0.84359   0.41896   0.93911   1.000
    C1259   C    0.81932   0.43830   0.94542   1.000
    C1260   C    0.04163   0.29274   0.06406   1.000
    C1261   C    0.99695   0.28742   0.09064   1.000
    C1262   C    0.02205   0.28506   0.06782   1.000
    C1263   C    0.02610   0.27678   0.04855   1.000
    C1264   C    0.98201   0.38611   0.08703   1.000
    C1265   C    0.95039   0.36196   0.10596   1.000
    C1266   C    0.95760   0.38640   0.09130   1.000
    C1267   C    0.98848   0.40915   0.07319   1.000
    C1268   C    0.97801   0.45770   0.04690   1.000
    C1269   C    0.97073   0.43328   0.06325   1.000
    C1270   C    0.93984   0.41057   0.08149   1.000
    C1271   C    0.94626   0.43353   0.06778   1.000
    C1272   C    0.92736   0.47788   0.96575   1.000
    C1273   C    0.93637   0.48724   0.97480   1.000
    C1274   C    0.00806   0.35050   0.92776   1.000
    C1275   C    0.97696   0.39300   0.90834   1.000
    C1276   C    0.00328   0.37631   0.91028   1.000
    C1277   C    0.03250   0.33577   0.93111   1.000
    C1278   C    0.91743   0.32862   0.17204   1.000
    C1279   C    0.05253   0.34661   0.91701   1.000
    C1280   C    0.02362   0.38669   0.89562   1.000
    C1281   C    0.04787   0.37206   0.89889   1.000
    O1282   O    0.78897   0.63876   0.82441   1.000
    O1283   O    0.88117   0.47735   0.91673   1.000
    O1284   O    0.80648   0.58630   0.84199   1.000
    O1285   O    0.86630   0.43680   0.94363   1.000
    O1286   O    0.93031   0.40227   0.88918   1.000
    O1287   O    0.99374   0.29648   0.10659   1.000
    O1288   O    0.96902   0.27054   0.15715   1.000
    O1289   O    0.96610   0.34063   0.11604   1.000
    O1290   O    0.92851   0.36353   0.10795   1.000
    O1291   O    0.00073   0.45664   0.04203   1.000
    O1292   O    0.96133   0.47857   0.03782   1.000
    O1293   O    0.91074   0.45860   0.94621   1.000
    O1294   O    0.95654   0.50396   0.99199   1.000
    O1295   O    0.95984   0.38238   0.91888   1.000
    O1296   O    0.89668   0.41736   0.97254   1.000
    O1297   O    0.94145   0.31492   0.16590   1.000
    O1298   O    0.91093   0.34586   0.09263   1.000
    H1299   H    0.77378   0.67253   0.84271   1.000
    H1300   H    0.84083   0.51485   0.90963   1.000
    H1301   H    0.81471   0.55251   0.88351   1.000
    H1302   H    0.86305   0.38423   0.92826   1.000
    H1303   H    0.81764   0.45366   0.95001   1.000
    H1304   H    0.03939   0.29936   0.07824   1.000
    H1305   H    0.01158   0.27082   0.05050   1.000
    H1306   H    0.99626   0.36801   0.09421   1.000
    H1307   H    0.00759   0.40797   0.07002   1.000
    H1308   H    0.92083   0.41181   0.08433   1.000
    H1309   H    0.93203   0.45151   0.06039   1.000
    H1310   H    0.90893   0.47439   0.97758   1.000
    H1311   H    0.92451   0.49049   0.99335   1.000
    H1312   H    0.99270   0.34198   0.93941   1.000
    H1313   H    0.03548   0.31624   0.94517   1.000
    H1314   H    0.02072   0.40637   0.88186   1.000
    H1315   H    0.06289   0.38102   0.88740   1.000
    C1316   C    0.78908   0.70277   0.68056   1.000
    C1317   C    0.85045   0.73753   0.52304   1.000
    C1318   C    0.83545   0.74597   0.54461   1.000
    C1319   C    0.84479   0.82254   0.39946   1.000
    C1320   C    0.86780   0.77511   0.41937   1.000
    C1321   C    0.84359   0.79833   0.41896   1.000
    C1322   C    0.81932   0.79696   0.43830   1.000
    C1323   C    0.04163   0.60157   0.29274   1.000
    C1324   C    0.99695   0.62499   0.28742   1.000
    C1325   C    0.02205   0.62506   0.28506   1.000
    C1326   C    0.02610   0.64857   0.27678   1.000
    C1327   C    0.98201   0.54484   0.38611   1.000
    C1328   C    0.95039   0.58169   0.36196   1.000
    C1329   C    0.95760   0.56470   0.38640   1.000
    C1330   C    0.98848   0.52917   0.40915   1.000
    C1331   C    0.97801   0.51739   0.45770   1.000
    C1332   C    0.97073   0.53274   0.43328   1.000
    C1333   C    0.93984   0.56810   0.41057   1.000
    C1334   C    0.94626   0.55243   0.43353   1.000
    C1335   C    0.92736   0.62901   0.47788   1.000
    C1336   C    0.93637   0.60159   0.48724   1.000
    C1337   C    0.00806   0.71368   0.35050   1.000
    C1338   C    0.97696   0.72170   0.39300   1.000
    C1339   C    0.00328   0.71013   0.37631   1.000
    C1340   C    0.03250   0.70062   0.33577   1.000
    C1341   C    0.91743   0.58192   0.32862   1.000
    C1342   C    0.05253   0.68385   0.34661   1.000
    C1343   C    0.02362   0.69408   0.38669   1.000
    C1344   C    0.04787   0.68119   0.37206   1.000
    O1345   O    0.78897   0.74786   0.63876   1.000
    O1346   O    0.88117   0.72475   0.47735   1.000
    O1347   O    0.80648   0.76523   0.58630   1.000
    O1348   O    0.86630   0.75327   0.43680   1.000
    O1349   O    0.93031   0.77824   0.40227   1.000
    O1350   O    0.99374   0.60319   0.29648   1.000
    O1351   O    0.96902   0.60330   0.27054   1.000
    O1352   O    0.96610   0.57723   0.34063   1.000
    O1353   O    0.92851   0.60000   0.36353   1.000
    O1354   O    0.00073   0.50060   0.45664   1.000
    O1355   O    0.96133   0.52229   0.47857   1.000
    O1356   O    0.91074   0.68444   0.45860   1.000
    O1357   O    0.95654   0.54751   0.50396   1.000
    O1358   O    0.95984   0.73889   0.38238   1.000
    O1359   O    0.89668   0.71343   0.41736   1.000
    O1360   O    0.94145   0.57773   0.31492   1.000
    O1361   O    0.91093   0.65057   0.34586   1.000
    H1362   H    0.77378   0.71098   0.67253   1.000
    H1363   H    0.84083   0.73468   0.51485   1.000
    H1364   H    0.81471   0.74927   0.55251   1.000
    H1365   H    0.86305   0.82446   0.38423   1.000
    H1366   H    0.81764   0.77869   0.45366   1.000
    H1367   H    0.03939   0.58302   0.29936   1.000
    H1368   H    0.01158   0.66710   0.27082   1.000
    H1369   H    0.99626   0.54151   0.36801   1.000
    H1370   H    0.00759   0.51443   0.40797   1.000
    H1371   H    0.92083   0.58302   0.41181   1.000
    H1372   H    0.93203   0.55606   0.45151   1.000
    H1373   H    0.90893   0.63910   0.47439   1.000
    H1374   H    0.92451   0.59165   0.49049   1.000
    H1375   H    0.99270   0.72592   0.34198   1.000
    H1376   H    0.03548   0.70310   0.31624   1.000
    H1377   H    0.02072   0.69105   0.40637   1.000
    H1378   H    0.06289   0.66869   0.38102   1.000
    C1379   C    0.82760   0.68056   0.70277   1.000
    C1380   C    0.88898   0.52304   0.73753   1.000
    C1381   C    0.87397   0.54461   0.74597   1.000
    C1382   C    0.93321   0.39946   0.82254   1.000
    C1383   C    0.93773   0.41937   0.77511   1.000
    C1384   C    0.93911   0.41896   0.79833   1.000
    C1385   C    0.94542   0.43830   0.79696   1.000
    C1386   C    0.06406   0.29274   0.60157   1.000
    C1387   C    0.09064   0.28742   0.62499   1.000
    C1388   C    0.06782   0.28506   0.62506   1.000
    C1389   C    0.04855   0.27678   0.64857   1.000
    C1390   C    0.08703   0.38611   0.54484   1.000
    C1391   C    0.10596   0.36196   0.58169   1.000
    C1392   C    0.09130   0.38640   0.56470   1.000
    C1393   C    0.07319   0.40915   0.52917   1.000
    C1394   C    0.04690   0.45770   0.51739   1.000
    C1395   C    0.06325   0.43328   0.53274   1.000
    C1396   C    0.08149   0.41057   0.56810   1.000
    C1397   C    0.06778   0.43353   0.55243   1.000
    C1398   C    0.96575   0.47788   0.62901   1.000
    C1399   C    0.97480   0.48724   0.60159   1.000
    C1400   C    0.92776   0.35050   0.71368   1.000
    C1401   C    0.90834   0.39300   0.72170   1.000
    C1402   C    0.91028   0.37631   0.71013   1.000
    C1403   C    0.93111   0.33577   0.70062   1.000
    C1404   C    0.17204   0.32862   0.58192   1.000
    C1405   C    0.91701   0.34661   0.68385   1.000
    C1406   C    0.89562   0.38669   0.69408   1.000
    C1407   C    0.89889   0.37206   0.68119   1.000
    O1408   O    0.82441   0.63876   0.74786   1.000
    O1409   O    0.91673   0.47735   0.72475   1.000
    O1410   O    0.84199   0.58630   0.76523   1.000
    O1411   O    0.94363   0.43680   0.75327   1.000
    O1412   O    0.88918   0.40227   0.77824   1.000
    O1413   O    0.10659   0.29648   0.60319   1.000
    O1414   O    0.15715   0.27054   0.60330   1.000
    O1415   O    0.11604   0.34063   0.57723   1.000
    O1416   O    0.10795   0.36353   0.60000   1.000
    O1417   O    0.04203   0.45664   0.50060   1.000
    O1418   O    0.03782   0.47857   0.52229   1.000
    O1419   O    0.94621   0.45860   0.68444   1.000
    O1420   O    0.99199   0.50396   0.54751   1.000
    O1421   O    0.91888   0.38238   0.73889   1.000
    O1422   O    0.97254   0.41736   0.71343   1.000
    O1423   O    0.16590   0.31492   0.57773   1.000
    O1424   O    0.09263   0.34586   0.65057   1.000
    H1425   H    0.84271   0.67253   0.71098   1.000
    H1426   H    0.90963   0.51485   0.73468   1.000
    H1427   H    0.88351   0.55251   0.74927   1.000
    H1428   H    0.92826   0.38423   0.82446   1.000
    H1429   H    0.95001   0.45366   0.77869   1.000
    H1430   H    0.07824   0.29936   0.58302   1.000
    H1431   H    0.05050   0.27082   0.66710   1.000
    H1432   H    0.09421   0.36801   0.54151   1.000
    H1433   H    0.07002   0.40797   0.51443   1.000
    H1434   H    0.08433   0.41181   0.58302   1.000
    H1435   H    0.06039   0.45151   0.55606   1.000
    H1436   H    0.97758   0.47439   0.63910   1.000
    H1437   H    0.99335   0.49049   0.59165   1.000
    H1438   H    0.93941   0.34198   0.72592   1.000
    H1439   H    0.94517   0.31624   0.70310   1.000
    H1440   H    0.88186   0.40637   0.69105   1.000
    H1441   H    0.88740   0.38102   0.66869   1.000
    C1442   C    0.68056   0.82760   0.78908   1.000
    C1443   C    0.52304   0.88898   0.85045   1.000
    C1444   C    0.54461   0.87397   0.83545   1.000
    C1445   C    0.39946   0.93321   0.84479   1.000
    C1446   C    0.41937   0.93773   0.86780   1.000
    C1447   C    0.41896   0.93911   0.84359   1.000
    C1448   C    0.43830   0.94542   0.81932   1.000
    C1449   C    0.29274   0.06406   0.04163   1.000
    C1450   C    0.28742   0.09064   0.99695   1.000
    C1451   C    0.28506   0.06782   0.02205   1.000
    C1452   C    0.27678   0.04855   0.02610   1.000
    C1453   C    0.38611   0.08703   0.98201   1.000
    C1454   C    0.36196   0.10596   0.95039   1.000
    C1455   C    0.38640   0.09130   0.95760   1.000
    C1456   C    0.40915   0.07319   0.98848   1.000
    C1457   C    0.45770   0.04690   0.97801   1.000
    C1458   C    0.43328   0.06325   0.97073   1.000
    C1459   C    0.41057   0.08149   0.93984   1.000
    C1460   C    0.43353   0.06778   0.94626   1.000
    C1461   C    0.47788   0.96575   0.92736   1.000
    C1462   C    0.48724   0.97480   0.93637   1.000
    C1463   C    0.35050   0.92776   0.00806   1.000
    C1464   C    0.39300   0.90834   0.97696   1.000
    C1465   C    0.37631   0.91028   0.00328   1.000
    C1466   C    0.33577   0.93111   0.03250   1.000
    C1467   C    0.32862   0.17204   0.91743   1.000
    C1468   C    0.34661   0.91701   0.05253   1.000
    C1469   C    0.38669   0.89562   0.02362   1.000
    C1470   C    0.37206   0.89889   0.04787   1.000
    O1471   O    0.63876   0.82441   0.78897   1.000
    O1472   O    0.47735   0.91673   0.88117   1.000
    O1473   O    0.58630   0.84199   0.80648   1.000
    O1474   O    0.43680   0.94363   0.86630   1.000
    O1475   O    0.40227   0.88918   0.93031   1.000
    O1476   O    0.29648   0.10659   0.99374   1.000
    O1477   O    0.27054   0.15715   0.96902   1.000
    O1478   O    0.34063   0.11604   0.96610   1.000
    O1479   O    0.36353   0.10795   0.92851   1.000
    O1480   O    0.45664   0.04203   0.00073   1.000
    O1481   O    0.47857   0.03782   0.96133   1.000
    O1482   O    0.45860   0.94621   0.91074   1.000
    O1483   O    0.50396   0.99199   0.95654   1.000
    O1484   O    0.38238   0.91888   0.95984   1.000
    O1485   O    0.41736   0.97254   0.89668   1.000
    O1486   O    0.31492   0.16590   0.94145   1.000
    O1487   O    0.34586   0.09263   0.91093   1.000
    H1488   H    0.67253   0.84271   0.77378   1.000
    H1489   H    0.51485   0.90963   0.84083   1.000
    H1490   H    0.55251   0.88351   0.81471   1.000
    H1491   H    0.38423   0.92826   0.86305   1.000
    H1492   H    0.45366   0.95001   0.81764   1.000
    H1493   H    0.29936   0.07824   0.03939   1.000
    H1494   H    0.27082   0.05050   0.01158   1.000
    H1495   H    0.36801   0.09421   0.99626   1.000
    H1496   H    0.40797   0.07002   0.00759   1.000
    H1497   H    0.41181   0.08433   0.92083   1.000
    H1498   H    0.45151   0.06039   0.93203   1.000
    H1499   H    0.47439   0.97758   0.90893   1.000
    H1500   H    0.49049   0.99335   0.92451   1.000
    H1501   H    0.34198   0.93941   0.99270   1.000
    H1502   H    0.31624   0.94517   0.03548   1.000
    H1503   H    0.40637   0.88186   0.02072   1.000
    H1504   H    0.38102   0.88740   0.06289   1.000
    C1505   C    0.70277   0.78908   0.82760   1.000
    C1506   C    0.73753   0.85045   0.88898   1.000
    C1507   C    0.74597   0.83545   0.87397   1.000
    C1508   C    0.82254   0.84479   0.93321   1.000
    C1509   C    0.77511   0.86780   0.93773   1.000
    C1510   C    0.79833   0.84359   0.93911   1.000
    C1511   C    0.79696   0.81932   0.94542   1.000
    C1512   C    0.60157   0.04163   0.06406   1.000
    C1513   C    0.62499   0.99695   0.09064   1.000
    C1514   C    0.62506   0.02205   0.06782   1.000
    C1515   C    0.64857   0.02610   0.04855   1.000
    C1516   C    0.54484   0.98201   0.08703   1.000
    C1517   C    0.58169   0.95039   0.10596   1.000
    C1518   C    0.56470   0.95760   0.09130   1.000
    C1519   C    0.52917   0.98848   0.07319   1.000
    C1520   C    0.51739   0.97801   0.04690   1.000
    C1521   C    0.53274   0.97073   0.06325   1.000
    C1522   C    0.56810   0.93984   0.08149   1.000
    C1523   C    0.55243   0.94626   0.06778   1.000
    C1524   C    0.62901   0.92736   0.96575   1.000
    C1525   C    0.60159   0.93637   0.97480   1.000
    C1526   C    0.71368   0.00806   0.92776   1.000
    C1527   C    0.72170   0.97696   0.90834   1.000
    C1528   C    0.71013   0.00328   0.91028   1.000
    C1529   C    0.70062   0.03250   0.93111   1.000
    C1530   C    0.58192   0.91743   0.17204   1.000
    C1531   C    0.68385   0.05253   0.91701   1.000
    C1532   C    0.69408   0.02362   0.89562   1.000
    C1533   C    0.68119   0.04787   0.89889   1.000
    O1534   O    0.74786   0.78897   0.82441   1.000
    O1535   O    0.72475   0.88117   0.91673   1.000
    O1536   O    0.76523   0.80648   0.84199   1.000
    O1537   O    0.75327   0.86630   0.94363   1.000
    O1538   O    0.77824   0.93031   0.88918   1.000
    O1539   O    0.60319   0.99374   0.10659   1.000
    O1540   O    0.60330   0.96902   0.15715   1.000
    O1541   O    0.57723   0.96610   0.11604   1.000
    O1542   O    0.60000   0.92851   0.10795   1.000
    O1543   O    0.50060   0.00073   0.04203   1.000
    O1544   O    0.52229   0.96133   0.03782   1.000
    O1545   O    0.68444   0.91074   0.94621   1.000
    O1546   O    0.54751   0.95654   0.99199   1.000
    O1547   O    0.73889   0.95984   0.91888   1.000
    O1548   O    0.71343   0.89668   0.97254   1.000
    O1549   O    0.57773   0.94145   0.16590   1.000
    O1550   O    0.65057   0.91093   0.09263   1.000
    H1551   H    0.71098   0.77378   0.84271   1.000
    H1552   H    0.73468   0.84083   0.90963   1.000
    H1553   H    0.74927   0.81471   0.88351   1.000
    H1554   H    0.82446   0.86305   0.92826   1.000
    H1555   H    0.77869   0.81764   0.95001   1.000
    H1556   H    0.58302   0.03939   0.07824   1.000
    H1557   H    0.66710   0.01158   0.05050   1.000
    H1558   H    0.54151   0.99626   0.09421   1.000
    H1559   H    0.51443   0.00759   0.07002   1.000
    H1560   H    0.58302   0.92083   0.08433   1.000
    H1561   H    0.55606   0.93203   0.06039   1.000
    H1562   H    0.63910   0.90893   0.97758   1.000
    H1563   H    0.59165   0.92451   0.99335   1.000
    H1564   H    0.72592   0.99270   0.93941   1.000
    H1565   H    0.70310   0.03548   0.94517   1.000
    H1566   H    0.69105   0.02072   0.88186   1.000
    H1567   H    0.66869   0.06289   0.88740   1.000
    C1568   C    0.82760   0.78908   0.70277   1.000
    C1569   C    0.88898   0.85045   0.73753   1.000
    C1570   C    0.87397   0.83545   0.74597   1.000
    C1571   C    0.93321   0.84479   0.82254   1.000
    C1572   C    0.93773   0.86780   0.77511   1.000
    C1573   C    0.93911   0.84359   0.79833   1.000
    C1574   C    0.94542   0.81932   0.79696   1.000
    C1575   C    0.06406   0.04163   0.60157   1.000
    C1576   C    0.09064   0.99695   0.62499   1.000
    C1577   C    0.06782   0.02205   0.62506   1.000
    C1578   C    0.04855   0.02610   0.64857   1.000
    C1579   C    0.08703   0.98201   0.54484   1.000
    C1580   C    0.10596   0.95039   0.58169   1.000
    C1581   C    0.09130   0.95760   0.56470   1.000
    C1582   C    0.07319   0.98848   0.52917   1.000
    C1583   C    0.04690   0.97801   0.51739   1.000
    C1584   C    0.06325   0.97073   0.53274   1.000
    C1585   C    0.08149   0.93984   0.56810   1.000
    C1586   C    0.06778   0.94626   0.55243   1.000
    C1587   C    0.96575   0.92736   0.62901   1.000
    C1588   C    0.97480   0.93637   0.60159   1.000
    C1589   C    0.92776   0.00806   0.71368   1.000
    C1590   C    0.90834   0.97696   0.72170   1.000
    O1591   O    0.12500   0.93992   0.62500   1.000
    O1592   O    0.93992   0.12500   0.31008   1.000
    O1593   O    0.62500   0.31008   0.12500   1.000
    O1594   O    0.31008   0.62500   0.93992   1.000
    O1595   O    0.62500   0.12500   0.93992   1.000
    O1596   O    0.31008   0.93992   0.12500   1.000
    O1597   O    0.12500   0.62500   0.31008   1.000
    O1598   O    0.93992   0.31008   0.62500   1.000
    O1599   O    0.93992   0.62500   0.12500   1.000
    O1600   O    0.12500   0.31008   0.93992   1.000
    O1601   O    0.31008   0.12500   0.62500   1.000
    O1602   O    0.62500   0.93992   0.31008   1.000
    O1603   O    0.25157   0.25157   0.74843   1.000
    O1604   O    0.74843   0.74843   0.25157   1.000
    O1605   O    0.74843   0.25157   0.25157   1.000
    O1606   O    0.25157   0.74843   0.74843   1.000
    O1607   O    0.25157   0.74843   0.25157   1.000
    O1608   O    0.74843   0.25157   0.74843   1.000
    O1609   O    0.99843   0.99843   0.50157   1.000
    O1610   O    0.50157   0.50157   0.99843   1.000
    O1611   O    0.50157   0.99843   0.50157   1.000
    O1612   O    0.99843   0.50157   0.99843   1.000
    O1613   O    0.99843   0.50157   0.50157   1.000
    O1614   O    0.50157   0.99843   0.99843   1.000
    H1615   H    0.90963   0.84083   0.73468   1.000
    H1616   H    0.88351   0.81471   0.74927   1.000
    H1617   H    0.92826   0.86305   0.82446   1.000
    H1618   H    0.95001   0.81764   0.77869   1.000
    H1619   H    0.07824   0.03939   0.58302   1.000
    H1620   H    0.05050   0.01158   0.66710   1.000
    H1621   H    0.09421   0.99626   0.54151   1.000
    H1622   H    0.07002   0.00759   0.51443   1.000
    H1623   H    0.08433   0.92083   0.58302   1.000
    H1624   H    0.06039   0.93203   0.55606   1.000
    H1625   H    0.97758   0.90893   0.63910   1.000
    H1626   H    0.99335   0.92451   0.59165   1.000
    H1627   H    0.93941   0.99270   0.72592   1.000
    H1628   H    0.94517   0.03548   0.70310   1.000
    H1629   H    0.88186   0.02072   0.69105   1.000
    H1630   H    0.88740   0.06289   0.66869   1.000
    C1631   C    0.78908   0.82760   0.68056   1.000
    C1632   C    0.85045   0.88898   0.52304   1.000
    C1633   C    0.83545   0.87397   0.54461   1.000
    C1634   C    0.84479   0.93321   0.39946   1.000
    C1635   C    0.86780   0.93773   0.41937   1.000
    C1636   C    0.84359   0.93911   0.41896   1.000
    C1637   C    0.81932   0.94542   0.43830   1.000
    C1638   C    0.04163   0.06406   0.29274   1.000
    C1639   C    0.99695   0.09064   0.28742   1.000
    C1640   C    0.02205   0.06782   0.28506   1.000
    C1641   C    0.02610   0.04855   0.27678   1.000
    C1642   C    0.98201   0.08703   0.38611   1.000
    C1643   C    0.95039   0.10596   0.36196   1.000
    C1644   C    0.95760   0.09130   0.38640   1.000
    C1645   C    0.98848   0.07319   0.40915   1.000
    C1646   C    0.97801   0.04690   0.45770   1.000
    C1647   C    0.97073   0.06325   0.43328   1.000
    C1648   C    0.93984   0.08149   0.41057   1.000
    C1649   C    0.94626   0.06778   0.43353   1.000
    C1650   C    0.92736   0.96575   0.47788   1.000
    C1651   C    0.93637   0.97480   0.48724   1.000
    C1652   C    0.00806   0.92776   0.35050   1.000
    C1653   C    0.97696   0.90834   0.39300   1.000
    C1654   C    0.00328   0.91028   0.37631   1.000
    C1655   C    0.03250   0.93111   0.33577   1.000
    C1656   C    0.91743   0.17204   0.32862   1.000
    C1657   C    0.05253   0.91701   0.34661   1.000
    C1658   C    0.02362   0.89562   0.38669   1.000
    C1659   C    0.04787   0.89889   0.37206   1.000
    O1660   O    0.78897   0.82441   0.63876   1.000
    O1661   O    0.88117   0.91673   0.47735   1.000
    O1662   O    0.80648   0.84199   0.58630   1.000
    O1663   O    0.86630   0.94363   0.43680   1.000
    O1664   O    0.93031   0.88918   0.40227   1.000
    O1665   O    0.99374   0.10659   0.29648   1.000
    O1666   O    0.96902   0.15715   0.27054   1.000
    O1667   O    0.96610   0.11604   0.34063   1.000
    O1668   O    0.92851   0.10795   0.36353   1.000
    O1669   O    0.00073   0.04203   0.45664   1.000
    O1670   O    0.96133   0.03782   0.47857   1.000
    O1671   O    0.91074   0.94621   0.45860   1.000
    O1672   O    0.95654   0.99199   0.50396   1.000
    O1673   O    0.95984   0.91888   0.38238   1.000
    O1674   O    0.89668   0.97254   0.41736   1.000
    O1675   O    0.94145   0.16590   0.31492   1.000
    O1676   O    0.91093   0.09263   0.34586   1.000
    H1677   H    0.77378   0.84271   0.67253   1.000
    H1678   H    0.84083   0.90963   0.51485   1.000
    H1679   H    0.81471   0.88351   0.55251   1.000
    H1680   H    0.86305   0.92826   0.38423   1.000
    H1681   H    0.81764   0.95001   0.45366   1.000
    H1682   H    0.03939   0.07824   0.29936   1.000
    H1683   H    0.01158   0.05050   0.27082   1.000
    H1684   H    0.99626   0.09421   0.36801   1.000
    H1685   H    0.00759   0.07002   0.40797   1.000
    H1686   H    0.92083   0.08433   0.41181   1.000
    H1687   H    0.93203   0.06039   0.45151   1.000
    H1688   H    0.90893   0.97758   0.47439   1.000
    H1689   H    0.92451   0.99335   0.49049   1.000
    H1690   H    0.99270   0.93941   0.34198   1.000
    H1691   H    0.03548   0.94517   0.31624   1.000
    H1692   H    0.02072   0.88186   0.40637   1.000
    H1693   H    0.06289   0.88740   0.38102   1.000
    C1694   C    0.70277   0.68056   0.82760   1.000
    C1695   C    0.73753   0.52304   0.88898   1.000
    C1696   C    0.74597   0.54461   0.87397   1.000
    C1697   C    0.82254   0.39946   0.93321   1.000
    C1698   C    0.77511   0.41937   0.93773   1.000
    C1699   C    0.79833   0.41896   0.93911   1.000
    C1700   C    0.79696   0.43830   0.94542   1.000
    C1701   C    0.60157   0.29274   0.06406   1.000
    C1702   C    0.62499   0.28742   0.09064   1.000
    C1703   C    0.62506   0.28506   0.06782   1.000
    C1704   C    0.64857   0.27678   0.04855   1.000
    C1705   C    0.54484   0.38611   0.08703   1.000
    C1706   C    0.58169   0.36196   0.10596   1.000
    C1707   C    0.56470   0.38640   0.09130   1.000
    C1708   C    0.52917   0.40915   0.07319   1.000
    C1709   C    0.51739   0.45770   0.04690   1.000
    C1710   C    0.53274   0.43328   0.06325   1.000
    C1711   C    0.56810   0.41057   0.08149   1.000
    C1712   C    0.55243   0.43353   0.06778   1.000
    C1713   C    0.62901   0.47788   0.96575   1.000
    C1714   C    0.60159   0.48724   0.97480   1.000
    C1715   C    0.71368   0.35050   0.92776   1.000
    C1716   C    0.72170   0.39300   0.90834   1.000
    C1717   C    0.71013   0.37631   0.91028   1.000
    C1718   C    0.70062   0.33577   0.93111   1.000
    C1719   C    0.58192   0.32862   0.17204   1.000
    C1720   C    0.68385   0.34661   0.91701   1.000
    C1721   C    0.69408   0.38669   0.89562   1.000
    C1722   C    0.68119   0.37206   0.89889   1.000
    O1723   O    0.74786   0.63876   0.82441   1.000
    O1724   O    0.72475   0.47735   0.91673   1.000
    O1725   O    0.76523   0.58630   0.84199   1.000
    O1726   O    0.75327   0.43680   0.94363   1.000
    O1727   O    0.77824   0.40227   0.88918   1.000
    O1728   O    0.60319   0.29648   0.10659   1.000
    O1729   O    0.60330   0.27054   0.15715   1.000
    O1730   O    0.57723   0.34063   0.11604   1.000
    O1731   O    0.60000   0.36353   0.10795   1.000
    O1732   O    0.50060   0.45664   0.04203   1.000
    O1733   O    0.52229   0.47857   0.03782   1.000
    O1734   O    0.68444   0.45860   0.94621   1.000
    O1735   O    0.54751   0.50396   0.99199   1.000
    O1736   O    0.73889   0.38238   0.91888   1.000
    O1737   O    0.71343   0.41736   0.97254   1.000
    O1738   O    0.57773   0.31492   0.16590   1.000
    O1739   O    0.65057   0.34586   0.09263   1.000
    H1740   H    0.71098   0.67253   0.84271   1.000
    H1741   H    0.73468   0.51485   0.90963   1.000
    H1742   H    0.74927   0.55251   0.88351   1.000
    H1743   H    0.82446   0.38423   0.92826   1.000
    H1744   H    0.77869   0.45366   0.95001   1.000
    H1745   H    0.58302   0.29936   0.07824   1.000
    H1746   H    0.66710   0.27082   0.05050   1.000
    H1747   H    0.54151   0.36801   0.09421   1.000
    H1748   H    0.51443   0.40797   0.07002   1.000
    H1749   H    0.58302   0.41181   0.08433   1.000
    H1750   H    0.55606   0.45151   0.06039   1.000
    H1751   H    0.63910   0.47439   0.97758   1.000
    H1752   H    0.59165   0.49049   0.99335   1.000
    H1753   H    0.72592   0.34198   0.93941   1.000
    H1754   H    0.70310   0.31624   0.94517   1.000
    H1755   H    0.69105   0.40637   0.88186   1.000
    H1756   H    0.66869   0.38102   0.88740   1.000
    C1757   C    0.68056   0.70277   0.78908   1.000
    C1758   C    0.52304   0.73753   0.85045   1.000
    C1759   C    0.54461   0.74597   0.83545   1.000
    C1760   C    0.39946   0.82254   0.84479   1.000
    C1761   C    0.41937   0.77511   0.86780   1.000
    C1762   C    0.41896   0.79833   0.84359   1.000
    C1763   C    0.43830   0.79696   0.81932   1.000
    C1764   C    0.29274   0.60157   0.04163   1.000
    C1765   C    0.28742   0.62499   0.99695   1.000
    C1766   C    0.28506   0.62506   0.02205   1.000
    C1767   C    0.27678   0.64857   0.02610   1.000
    C1768   C    0.38611   0.54484   0.98201   1.000
    C1769   C    0.36196   0.58169   0.95039   1.000
    C1770   C    0.38640   0.56470   0.95760   1.000
    C1771   C    0.40915   0.52917   0.98848   1.000
    C1772   C    0.45770   0.51739   0.97801   1.000
    C1773   C    0.43328   0.53274   0.97073   1.000
    C1774   C    0.41057   0.56810   0.93984   1.000
    C1775   C    0.43353   0.55243   0.94626   1.000
    C1776   C    0.47788   0.62901   0.92736   1.000
    C1777   C    0.48724   0.60159   0.93637   1.000
    C1778   C    0.35050   0.71368   0.00806   1.000
    C1779   C    0.39300   0.72170   0.97696   1.000
    C1780   C    0.37631   0.71013   0.00328   1.000
    C1781   C    0.33577   0.70062   0.03250   1.000
    C1782   C    0.32862   0.58192   0.91743   1.000
    C1783   C    0.34661   0.68385   0.05253   1.000
    C1784   C    0.38669   0.69408   0.02362   1.000
    C1785   C    0.37206   0.68119   0.04787   1.000
    O1786   O    0.63876   0.74786   0.78897   1.000
    O1787   O    0.47735   0.72475   0.88117   1.000
    O1788   O    0.58630   0.76523   0.80648   1.000
    O1789   O    0.43680   0.75327   0.86630   1.000
    O1790   O    0.40227   0.77824   0.93031   1.000
    O1791   O    0.29648   0.60319   0.99374   1.000
    O1792   O    0.27054   0.60330   0.96902   1.000
    O1793   O    0.34063   0.57723   0.96610   1.000
    O1794   O    0.36353   0.60000   0.92851   1.000
    O1795   O    0.45664   0.50060   0.00073   1.000
    O1796   O    0.47857   0.52229   0.96133   1.000
    O1797   O    0.45860   0.68444   0.91074   1.000
    O1798   O    0.50396   0.54751   0.95654   1.000
    O1799   O    0.38238   0.73889   0.95984   1.000
    O1800   O    0.41736   0.71343   0.89668   1.000
    O1801   O    0.31492   0.57773   0.94145   1.000
    O1802   O    0.34586   0.65057   0.91093   1.000
    H1803   H    0.67253   0.71098   0.77378   1.000
    H1804   H    0.51485   0.73468   0.84083   1.000
    H1805   H    0.55251   0.74927   0.81471   1.000
    H1806   H    0.38423   0.82446   0.86305   1.000
    H1807   H    0.45366   0.77869   0.81764   1.000
    H1808   H    0.29936   0.58302   0.03939   1.000
    H1809   H    0.27082   0.66710   0.01158   1.000
    H1810   H    0.36801   0.54151   0.99626   1.000
    H1811   H    0.40797   0.51443   0.00759   1.000
    H1812   H    0.41181   0.58302   0.92083   1.000
    H1813   H    0.45151   0.55606   0.93203   1.000
    H1814   H    0.47439   0.63910   0.90893   1.000
    H1815   H    0.49049   0.59165   0.92451   1.000
    H1816   H    0.34198   0.72592   0.99270   1.000
    H1817   H    0.31624   0.70310   0.03548   1.000
    H1818   H    0.40637   0.69105   0.02072   1.000
    H1819   H    0.38102   0.66869   0.06289   1.000
    C1820   C    0.70277   0.82760   0.78908   1.000
    C1821   C    0.73753   0.88898   0.85045   1.000
    C1822   C    0.74597   0.87397   0.83545   1.000
    C1823   C    0.82254   0.93321   0.84479   1.000
    C1824   C    0.77511   0.93773   0.86780   1.000
    C1825   C    0.79833   0.93911   0.84359   1.000
    C1826   C    0.79696   0.94542   0.81932   1.000
    C1827   C    0.60157   0.06406   0.04163   1.000
    C1828   C    0.62499   0.09064   0.99695   1.000
    C1829   C    0.62506   0.06782   0.02205   1.000
    C1830   C    0.64857   0.04855   0.02610   1.000
    C1831   C    0.54484   0.08703   0.98201   1.000
    C1832   C    0.58169   0.10596   0.95039   1.000
    C1833   C    0.56470   0.09130   0.95760   1.000
    C1834   C    0.52917   0.07319   0.98848   1.000
    C1835   C    0.51739   0.04690   0.97801   1.000
    C1836   C    0.53274   0.06325   0.97073   1.000
    C1837   C    0.56810   0.08149   0.93984   1.000
    C1838   C    0.55243   0.06778   0.94626   1.000
    C1839   C    0.62901   0.96575   0.92736   1.000
    C1840   C    0.60159   0.97480   0.93637   1.000
    C1841   C    0.71368   0.92776   0.00806   1.000
    C1842   C    0.72170   0.90834   0.97696   1.000
    C1843   C    0.71013   0.91028   0.00328   1.000
    C1844   C    0.70062   0.93111   0.03250   1.000
    C1845   C    0.58192   0.17204   0.91743   1.000
    C1846   C    0.68385   0.91701   0.05253   1.000
    C1847   C    0.69408   0.89562   0.02362   1.000
    C1848   C    0.68119   0.89889   0.04787   1.000
    O1849   O    0.74786   0.82441   0.78897   1.000
    O1850   O    0.72475   0.91673   0.88117   1.000
    O1851   O    0.76523   0.84199   0.80648   1.000
    O1852   O    0.75327   0.94363   0.86630   1.000
    O1853   O    0.77824   0.88918   0.93031   1.000
    O1854   O    0.60319   0.10659   0.99374   1.000
    O1855   O    0.60330   0.15715   0.96902   1.000
    O1856   O    0.57723   0.11604   0.96610   1.000
    O1857   O    0.60000   0.10795   0.92851   1.000
    O1858   O    0.50060   0.04203   0.00073   1.000
    O1859   O    0.52229   0.03782   0.96133   1.000
    O1860   O    0.68444   0.94621   0.91074   1.000
    O1861   O    0.54751   0.99199   0.95654   1.000
    O1862   O    0.73889   0.91888   0.95984   1.000
    O1863   O    0.71343   0.97254   0.89668   1.000
    O1864   O    0.57773   0.16590   0.94145   1.000
    O1865   O    0.65057   0.09263   0.91093   1.000
    H1866   H    0.71098   0.84271   0.77378   1.000
    H1867   H    0.73468   0.90963   0.84083   1.000
    H1868   H    0.74927   0.88351   0.81471   1.000
    H1869   H    0.82446   0.92826   0.86305   1.000
    H1870   H    0.77869   0.95001   0.81764   1.000
    H1871   H    0.58302   0.07824   0.03939   1.000
    H1872   H    0.66710   0.05050   0.01158   1.000
    H1873   H    0.54151   0.09421   0.99626   1.000
    H1874   H    0.51443   0.07002   0.00759   1.000
    H1875   H    0.58302   0.08433   0.92083   1.000
    H1876   H    0.55606   0.06039   0.93203   1.000
    H1877   H    0.63910   0.97758   0.90893   1.000
    H1878   H    0.59165   0.99335   0.92451   1.000
    H1879   H    0.72592   0.93941   0.99270   1.000
    H1880   H    0.70310   0.94517   0.03548   1.000
    H1881   H    0.69105   0.88186   0.02072   1.000
    H1882   H    0.66869   0.88740   0.06289   1.000
    C1883   C    0.68056   0.78908   0.82760   1.000
    C1884   C    0.52304   0.85045   0.88898   1.000
    C1885   C    0.54461   0.83545   0.87397   1.000
    C1886   C    0.39946   0.84479   0.93321   1.000
    C1887   C    0.41937   0.86780   0.93773   1.000
    C1888   C    0.41896   0.84359   0.93911   1.000
    C1889   C    0.43830   0.81932   0.94542   1.000
    C1890   C    0.29274   0.04163   0.06406   1.000
    C1891   C    0.28742   0.99695   0.09064   1.000
    C1892   C    0.28506   0.02205   0.06782   1.000
    C1893   C    0.27678   0.02610   0.04855   1.000
    C1894   C    0.38611   0.98201   0.08703   1.000
    C1895   C    0.36196   0.95039   0.10596   1.000
    C1896   C    0.38640   0.95760   0.09130   1.000
    C1897   C    0.40915   0.98848   0.07319   1.000
    C1898   C    0.45770   0.97801   0.04690   1.000
    C1899   C    0.43328   0.97073   0.06325   1.000
    C1900   C    0.41057   0.93984   0.08149   1.000
    C1901   C    0.43353   0.94626   0.06778   1.000
    C1902   C    0.47788   0.92736   0.96575   1.000
    C1903   C    0.48724   0.93637   0.97480   1.000
    C1904   C    0.35050   0.00806   0.92776   1.000
    C1905   C    0.39300   0.97696   0.90834   1.000
    C1906   C    0.37631   0.00328   0.91028   1.000
    C1907   C    0.33577   0.03250   0.93111   1.000
    C1908   C    0.32862   0.91743   0.17204   1.000
    C1909   C    0.34661   0.05253   0.91701   1.000
    C1910   C    0.38669   0.02362   0.89562   1.000
    C1911   C    0.37206   0.04787   0.89889   1.000
    O1912   O    0.63876   0.78897   0.82441   1.000
    O1913   O    0.47735   0.88117   0.91673   1.000
    O1914   O    0.58630   0.80648   0.84199   1.000
    O1915   O    0.43680   0.86630   0.94363   1.000
    O1916   O    0.40227   0.93031   0.88918   1.000
    O1917   O    0.29648   0.99374   0.10659   1.000
    O1918   O    0.27054   0.96902   0.15715   1.000
    O1919   O    0.34063   0.96610   0.11604   1.000
    O1920   O    0.36353   0.92851   0.10795   1.000
    O1921   O    0.45664   0.00073   0.04203   1.000
    O1922   O    0.47857   0.96133   0.03782   1.000
    O1923   O    0.45860   0.91074   0.94621   1.000
    O1924   O    0.50396   0.95654   0.99199   1.000
    O1925   O    0.38238   0.95984   0.91888   1.000
    O1926   O    0.41736   0.89668   0.97254   1.000
    O1927   O    0.31492   0.94145   0.16590   1.000
    O1928   O    0.34586   0.91093   0.09263   1.000
    H1929   H    0.67253   0.77378   0.84271   1.000
    H1930   H    0.51485   0.84083   0.90963   1.000
    H1931   H    0.55251   0.81471   0.88351   1.000
    H1932   H    0.38423   0.86305   0.92826   1.000
    H1933   H    0.45366   0.81764   0.95001   1.000
    H1934   H    0.29936   0.03939   0.07824   1.000
    H1935   H    0.27082   0.01158   0.05050   1.000
    H1936   H    0.36801   0.99626   0.09421   1.000
    H1937   H    0.40797   0.00759   0.07002   1.000
    H1938   H    0.41181   0.92083   0.08433   1.000
    H1939   H    0.45151   0.93203   0.06039   1.000
    H1940   H    0.47439   0.90893   0.97758   1.000
    H1941   H    0.49049   0.92451   0.99335   1.000
    H1942   H    0.34198   0.99270   0.93941   1.000
    H1943   H    0.31624   0.03548   0.94517   1.000
    H1944   H    0.40637   0.02072   0.88186   1.000
    H1945   H    0.38102   0.06289   0.88740   1.000
    C1946   C    0.82760   0.70277   0.68056   1.000
    C1947   C    0.88898   0.73753   0.52304   1.000
    C1948   C    0.87397   0.74597   0.54461   1.000
    C1949   C    0.93321   0.82254   0.39946   1.000
    C1950   C    0.93773   0.77511   0.41937   1.000
    C1951   C    0.93911   0.79833   0.41896   1.000
    C1952   C    0.94542   0.79696   0.43830   1.000
    C1953   C    0.06406   0.60157   0.29274   1.000
    C1954   C    0.09064   0.62499   0.28742   1.000
    C1955   C    0.06782   0.62506   0.28506   1.000
    C1956   C    0.04855   0.64857   0.27678   1.000
    C1957   C    0.08703   0.54484   0.38611   1.000
    C1958   C    0.10596   0.58169   0.36196   1.000
    C1959   C    0.09130   0.56470   0.38640   1.000
    C1960   C    0.07319   0.52917   0.40915   1.000
    C1961   C    0.04690   0.51739   0.45770   1.000
    C1962   C    0.06325   0.53274   0.43328   1.000
    C1963   C    0.08149   0.56810   0.41057   1.000
    C1964   C    0.06778   0.55243   0.43353   1.000
    C1965   C    0.96575   0.62901   0.47788   1.000
    C1966   C    0.97480   0.60159   0.48724   1.000
    C1967   C    0.92776   0.71368   0.35050   1.000
    C1968   C    0.90834   0.72170   0.39300   1.000
    C1969   C    0.91028   0.71013   0.37631   1.000
    C1970   C    0.93111   0.70062   0.33577   1.000
    C1971   C    0.17204   0.58192   0.32862   1.000
    C1972   C    0.91701   0.68385   0.34661   1.000
    C1973   C    0.89562   0.69408   0.38669   1.000
    C1974   C    0.89889   0.68119   0.37206   1.000
    O1975   O    0.82441   0.74786   0.63876   1.000
    O1976   O    0.91673   0.72475   0.47735   1.000
    O1977   O    0.84199   0.76523   0.58630   1.000
    O1978   O    0.94363   0.75327   0.43680   1.000
    O1979   O    0.88918   0.77824   0.40227   1.000
    O1980   O    0.10659   0.60319   0.29648   1.000
    O1981   O    0.15715   0.60330   0.27054   1.000
    O1982   O    0.11604   0.57723   0.34063   1.000
    O1983   O    0.10795   0.60000   0.36353   1.000
    O1984   O    0.04203   0.50060   0.45664   1.000
    O1985   O    0.03782   0.52229   0.47857   1.000
    O1986   O    0.94621   0.68444   0.45860   1.000
    O1987   O    0.99199   0.54751   0.50396   1.000
    O1988   O    0.91888   0.73889   0.38238   1.000
    O1989   O    0.97254   0.71343   0.41736   1.000
    O1990   O    0.16590   0.57773   0.31492   1.000
    O1991   O    0.09263   0.65057   0.34586   1.000
    H1992   H    0.84271   0.71098   0.67253   1.000
    H1993   H    0.90963   0.73468   0.51485   1.000
    H1994   H    0.88351   0.74927   0.55251   1.000
    H1995   H    0.92826   0.82446   0.38423   1.000
    H1996   H    0.95001   0.77869   0.45366   1.000
    H1997   H    0.07824   0.58302   0.29936   1.000
    H1998   H    0.05050   0.66710   0.27082   1.000
    H1999   H    0.09421   0.54151   0.36801   1.000
    H2000   H    0.07002   0.51443   0.40797   1.000
    H2001   H    0.08433   0.58302   0.41181   1.000
    H2002   H    0.06039   0.55606   0.45151   1.000
    H2003   H    0.97758   0.63910   0.47439   1.000
    H2004   H    0.99335   0.59165   0.49049   1.000
    H2005   H    0.93941   0.72592   0.34198   1.000
    H2006   H    0.94517   0.70310   0.31624   1.000
    H2007   H    0.88186   0.69105   0.40637   1.000
    H2008   H    0.88740   0.66869   0.38102   1.000
    C2009   C    0.78908   0.68056   0.70277   1.000
    C2010   C    0.85045   0.52304   0.73753   1.000
    C2011   C    0.83545   0.54461   0.74597   1.000
    C2012   C    0.84479   0.39946   0.82254   1.000
    C2013   C    0.86780   0.41937   0.77511   1.000
    C2014   C    0.84359   0.41896   0.79833   1.000
    C2015   C    0.81932   0.43830   0.79696   1.000
    C2016   C    0.04163   0.29274   0.60157   1.000
    C2017   C    0.99695   0.28742   0.62499   1.000
    C2018   C    0.02205   0.28506   0.62506   1.000
    C2019   C    0.02610   0.27678   0.64857   1.000
    C2020   C    0.98201   0.38611   0.54484   1.000
    C2021   C    0.95039   0.36196   0.58169   1.000
    C2022   C    0.95760   0.38640   0.56470   1.000
    C2023   C    0.98848   0.40915   0.52917   1.000
    C2024   C    0.97801   0.45770   0.51739   1.000
    C2025   C    0.97073   0.43328   0.53274   1.000
    C2026   C    0.93984   0.41057   0.56810   1.000
    C2027   C    0.94626   0.43353   0.55243   1.000
    C2028   C    0.92736   0.47788   0.62901   1.000
    C2029   C    0.93637   0.48724   0.60159   1.000
    C2030   C    0.00806   0.35050   0.71368   1.000
    C2031   C    0.97696   0.39300   0.72170   1.000
    C2032   C    0.00328   0.37631   0.71013   1.000
    C2033   C    0.03250   0.33577   0.70062   1.000
    C2034   C    0.91743   0.32862   0.58192   1.000
    C2035   C    0.05253   0.34661   0.68385   1.000
    C2036   C    0.02362   0.38669   0.69408   1.000
    C2037   C    0.04787   0.37206   0.68119   1.000
    O2038   O    0.78897   0.63876   0.74786   1.000
    O2039   O    0.88117   0.47735   0.72475   1.000
    C2040   C    0.78908   0.70277   0.82760   1.000
    C2041   C    0.85045   0.73753   0.88898   1.000
    C2042   C    0.83545   0.74597   0.87397   1.000
    C2043   C    0.84479   0.82254   0.93321   1.000
    C2044   C    0.86780   0.77511   0.93773   1.000
    C2045   C    0.84359   0.79833   0.93911   1.000
    C2046   C    0.81932   0.79696   0.94542   1.000
    C2047   C    0.04163   0.60157   0.06406   1.000
    C2048   C    0.99695   0.62499   0.09064   1.000
    C2049   C    0.02205   0.62506   0.06782   1.000
    C2050   C    0.02610   0.64857   0.04855   1.000
    C2051   C    0.98201   0.54484   0.08703   1.000
    C2052   C    0.95039   0.58169   0.10596   1.000
    C2053   C    0.95760   0.56470   0.09130   1.000
    C2054   C    0.98848   0.52917   0.07319   1.000
    C2055   C    0.97801   0.51739   0.04690   1.000
    C2056   C    0.97073   0.53274   0.06325   1.000
    C2057   C    0.93984   0.56810   0.08149   1.000
    C2058   C    0.94626   0.55243   0.06778   1.000
    C2059   C    0.92736   0.62901   0.96575   1.000
    C2060   C    0.93637   0.60159   0.97480   1.000
    C2061   C    0.00806   0.71368   0.92776   1.000
    C2062   C    0.97696   0.72170   0.90834   1.000
    C2063   C    0.00328   0.71013   0.91028   1.000
    C2064   C    0.03250   0.70062   0.93111   1.000
    C2065   C    0.91743   0.58192   0.17204   1.000
    C2066   C    0.05253   0.68385   0.91701   1.000
    C2067   C    0.02362   0.69408   0.89562   1.000
    C2068   C    0.04787   0.68119   0.89889   1.000
    O2069   O    0.78897   0.74786   0.82441   1.000
    O2070   O    0.88117   0.72475   0.91673   1.000
    O2071   O    0.80648   0.76523   0.84199   1.000
    O2072   O    0.86630   0.75327   0.94363   1.000
    O2073   O    0.93031   0.77824   0.88918   1.000
    O2074   O    0.99374   0.60319   0.10659   1.000
    O2075   O    0.96902   0.60330   0.15715   1.000
    O2076   O    0.96610   0.57723   0.11604   1.000
    O2077   O    0.92851   0.60000   0.10795   1.000
    O2078   O    0.00073   0.50060   0.04203   1.000
    O2079   O    0.96133   0.52229   0.03782   1.000
    O2080   O    0.91074   0.68444   0.94621   1.000
    O2081   O    0.95654   0.54751   0.99199   1.000
    O2082   O    0.95984   0.73889   0.91888   1.000
    O2083   O    0.89668   0.71343   0.97254   1.000
    O2084   O    0.94145   0.57773   0.16590   1.000
    O2085   O    0.91093   0.65057   0.09263   1.000
    H2086   H    0.77378   0.71098   0.84271   1.000
    H2087   H    0.84083   0.73468   0.90963   1.000
    H2088   H    0.81471   0.74927   0.88351   1.000
    H2089   H    0.86305   0.82446   0.92826   1.000
    H2090   H    0.81764   0.77869   0.95001   1.000
    H2091   H    0.03939   0.58302   0.07824   1.000
    H2092   H    0.01158   0.66710   0.05050   1.000
    H2093   H    0.99626   0.54151   0.09421   1.000
    H2094   H    0.00759   0.51443   0.07002   1.000
    H2095   H    0.92083   0.58302   0.08433   1.000
    H2096   H    0.93203   0.55606   0.06039   1.000
    H2097   H    0.90893   0.63910   0.97758   1.000
    H2098   H    0.92451   0.59165   0.99335   1.000
    H2099   H    0.99270   0.72592   0.93941   1.000
    H2100   H    0.03548   0.70310   0.94517   1.000
    H2101   H    0.02072   0.69105   0.88186   1.000
    H2102   H    0.06289   0.66869   0.88740   1.000
    C2103   C    0.82760   0.68056   0.78908   1.000
    C2104   C    0.88898   0.52304   0.85045   1.000
    C2105   C    0.87397   0.54461   0.83545   1.000
    C2106   C    0.93321   0.39946   0.84479   1.000
    C2107   C    0.93773   0.41937   0.86780   1.000
    C2108   C    0.93911   0.41896   0.84359   1.000
    C2109   C    0.94542   0.43830   0.81932   1.000
    C2110   C    0.06406   0.29274   0.04163   1.000
    C2111   C    0.09064   0.28742   0.99695   1.000
    C2112   C    0.06782   0.28506   0.02205   1.000
    C2113   C    0.04855   0.27678   0.02610   1.000
    C2114   C    0.08703   0.38611   0.98201   1.000
    C2115   C    0.10596   0.36196   0.95039   1.000
    C2116   C    0.09130   0.38640   0.95760   1.000
    C2117   C    0.07319   0.40915   0.98848   1.000
    C2118   C    0.04690   0.45770   0.97801   1.000
    C2119   C    0.06325   0.43328   0.97073   1.000
    C2120   C    0.08149   0.41057   0.93984   1.000
    C2121   C    0.06778   0.43353   0.94626   1.000
    C2122   C    0.96575   0.47788   0.92736   1.000
    C2123   C    0.97480   0.48724   0.93637   1.000
    C2124   C    0.92776   0.35050   0.00806   1.000
    C2125   C    0.90834   0.39300   0.97696   1.000
    C2126   C    0.91028   0.37631   0.00328   1.000
    C2127   C    0.93111   0.33577   0.03250   1.000
    C2128   C    0.17204   0.32862   0.91743   1.000
    C2129   C    0.91701   0.34661   0.05253   1.000
    C2130   C    0.89562   0.38669   0.02362   1.000
    C2131   C    0.89889   0.37206   0.04787   1.000
    O2132   O    0.82441   0.63876   0.78897   1.000
    O2133   O    0.91673   0.47735   0.88117   1.000
    O2134   O    0.84199   0.58630   0.80648   1.000
    O2135   O    0.94363   0.43680   0.86630   1.000
    O2136   O    0.88918   0.40227   0.93031   1.000
    O2137   O    0.10659   0.29648   0.99374   1.000
    O2138   O    0.15715   0.27054   0.96902   1.000
    O2139   O    0.11604   0.34063   0.96610   1.000
    O2140   O    0.10795   0.36353   0.92851   1.000
    O2141   O    0.04203   0.45664   0.00073   1.000
    O2142   O    0.03782   0.47857   0.96133   1.000
    O2143   O    0.94621   0.45860   0.91074   1.000
    O2144   O    0.99199   0.50396   0.95654   1.000
    O2145   O    0.91888   0.38238   0.95984   1.000
    O2146   O    0.97254   0.41736   0.89668   1.000
    O2147   O    0.16590   0.31492   0.94145   1.000
    O2148   O    0.09263   0.34586   0.91093   1.000
    H2149   H    0.84271   0.67253   0.77378   1.000
    H2150   H    0.90963   0.51485   0.84083   1.000
    H2151   H    0.88351   0.55251   0.81471   1.000
    H2152   H    0.92826   0.38423   0.86305   1.000
    H2153   H    0.95001   0.45366   0.81764   1.000
    H2154   H    0.07824   0.29936   0.03939   1.000
    H2155   H    0.05050   0.27082   0.01158   1.000
    H2156   H    0.09421   0.36801   0.99626   1.000
    H2157   H    0.07002   0.40797   0.00759   1.000
    H2158   H    0.08433   0.41181   0.92083   1.000
    H2159   H    0.06039   0.45151   0.93203   1.000
    H2160   H    0.97758   0.47439   0.90893   1.000
    H2161   H    0.99335   0.49049   0.92451   1.000
    H2162   H    0.93941   0.34198   0.99270   1.000
    H2163   H    0.94517   0.31624   0.03548   1.000
    H2164   H    0.88186   0.40637   0.02072   1.000
    H2165   H    0.88740   0.38102   0.06289   1.000
    C2166   C    0.68056   0.82760   0.70277   1.000
    C2167   C    0.52304   0.88898   0.73753   1.000
    C2168   C    0.54461   0.87397   0.74597   1.000
    C2169   C    0.39946   0.93321   0.82254   1.000
    C2170   C    0.41937   0.93773   0.77511   1.000
    C2171   C    0.41896   0.93911   0.79833   1.000
    C2172   C    0.43830   0.94542   0.79696   1.000
    C2173   C    0.29274   0.06406   0.60157   1.000
    C2174   C    0.28742   0.09064   0.62499   1.000
    C2175   C    0.28506   0.06782   0.62506   1.000
    C2176   C    0.27678   0.04855   0.64857   1.000
    C2177   C    0.38611   0.08703   0.54484   1.000
    C2178   C    0.36196   0.10596   0.58169   1.000
    C2179   C    0.38640   0.09130   0.56470   1.000
    C2180   C    0.40915   0.07319   0.52917   1.000
    C2181   C    0.45770   0.04690   0.51739   1.000
    C2182   C    0.43328   0.06325   0.53274   1.000
    C2183   C    0.41057   0.08149   0.56810   1.000
    C2184   C    0.43353   0.06778   0.55243   1.000
    C2185   C    0.47788   0.96575   0.62901   1.000
    C2186   C    0.48724   0.97480   0.60159   1.000
    C2187   C    0.35050   0.92776   0.71368   1.000
    C2188   C    0.39300   0.90834   0.72170   1.000
    C2189   C    0.37631   0.91028   0.71013   1.000
    C2190   C    0.33577   0.93111   0.70062   1.000
    C2191   C    0.32862   0.17204   0.58192   1.000
    C2192   C    0.34661   0.91701   0.68385   1.000
    C2193   C    0.38669   0.89562   0.69408   1.000
    C2194   C    0.37206   0.89889   0.68119   1.000
    O2195   O    0.63876   0.82441   0.74786   1.000
    O2196   O    0.47735   0.91673   0.72475   1.000
    O2197   O    0.58630   0.84199   0.76523   1.000
    O2198   O    0.43680   0.94363   0.75327   1.000
    O2199   O    0.40227   0.88918   0.77824   1.000
    O2200   O    0.29648   0.10659   0.60319   1.000
    O2201   O    0.27054   0.15715   0.60330   1.000
    O2202   O    0.34063   0.11604   0.57723   1.000
    O2203   O    0.36353   0.10795   0.60000   1.000
    O2204   O    0.45664   0.04203   0.50060   1.000
    O2205   O    0.47857   0.03782   0.52229   1.000
    O2206   O    0.45860   0.94621   0.68444   1.000
    O2207   O    0.50396   0.99199   0.54751   1.000
    O2208   O    0.38238   0.91888   0.73889   1.000
    O2209   O    0.41736   0.97254   0.71343   1.000
    O2210   O    0.31492   0.16590   0.57773   1.000
    O2211   O    0.34586   0.09263   0.65057   1.000
    H2212   H    0.67253   0.84271   0.71098   1.000
    H2213   H    0.51485   0.90963   0.73468   1.000
    H2214   H    0.55251   0.88351   0.74927   1.000
    H2215   H    0.38423   0.92826   0.82446   1.000
    H2216   H    0.45366   0.95001   0.77869   1.000
    H2217   H    0.29936   0.07824   0.58302   1.000
    H2218   H    0.27082   0.05050   0.66710   1.000
    H2219   H    0.36801   0.09421   0.54151   1.000
    H2220   H    0.40797   0.07002   0.51443   1.000
    H2221   H    0.41181   0.08433   0.58302   1.000
    H2222   H    0.45151   0.06039   0.55606   1.000
    H2223   H    0.47439   0.97758   0.63910   1.000
    H2224   H    0.49049   0.99335   0.59165   1.000
    H2225   H    0.34198   0.93941   0.72592   1.000
    H2226   H    0.31624   0.94517   0.70310   1.000
    H2227   H    0.40637   0.88186   0.69105   1.000
    H2228   H    0.38102   0.88740   0.66869   1.000
    C2229   C    0.70277   0.78908   0.68056   1.000
    C2230   C    0.73753   0.85045   0.52304   1.000
    C2231   C    0.74597   0.83545   0.54461   1.000
    C2232   C    0.82254   0.84479   0.39946   1.000
    C2233   C    0.77511   0.86780   0.41937   1.000
    C2234   C    0.79833   0.84359   0.41896   1.000
    C2235   C    0.79696   0.81932   0.43830   1.000
    C2236   C    0.60157   0.04163   0.29274   1.000
    C2237   C    0.62499   0.99695   0.28742   1.000
    C2238   C    0.62506   0.02205   0.28506   1.000
    C2239   C    0.64857   0.02610   0.27678   1.000
    C2240   C    0.54484   0.98201   0.38611   1.000
    C2241   C    0.58169   0.95039   0.36196   1.000
    C2242   C    0.56470   0.95760   0.38640   1.000
    C2243   C    0.52917   0.98848   0.40915   1.000
    C2244   C    0.51739   0.97801   0.45770   1.000
    C2245   C    0.53274   0.97073   0.43328   1.000
    C2246   C    0.56810   0.93984   0.41057   1.000
    C2247   C    0.55243   0.94626   0.43353   1.000
    C2248   C    0.62901   0.92736   0.47788   1.000
    C2249   C    0.60159   0.93637   0.48724   1.000
    C2250   C    0.71368   0.00806   0.35050   1.000
    C2251   C    0.72170   0.97696   0.39300   1.000
    C2252   C    0.71013   0.00328   0.37631   1.000
    C2253   C    0.70062   0.03250   0.33577   1.000
    C2254   C    0.58192   0.91743   0.32862   1.000
    C2255   C    0.68385   0.05253   0.34661   1.000
    C2256   C    0.69408   0.02362   0.38669   1.000
    C2257   C    0.68119   0.04787   0.37206   1.000
    O2258   O    0.74786   0.78897   0.63876   1.000
    O2259   O    0.72475   0.88117   0.47735   1.000
    O2260   O    0.76523   0.80648   0.58630   1.000
    O2261   O    0.75327   0.86630   0.43680   1.000
    O2262   O    0.77824   0.93031   0.40227   1.000
    O2263   O    0.60319   0.99374   0.29648   1.000
    O2264   O    0.60330   0.96902   0.27054   1.000
    O2265   O    0.57723   0.96610   0.34063   1.000
    O2266   O    0.60000   0.92851   0.36353   1.000
    O2267   O    0.50060   0.00073   0.45664   1.000
    O2268   O    0.52229   0.96133   0.47857   1.000
    O2269   O    0.68444   0.91074   0.45860   1.000
    O2270   O    0.54751   0.95654   0.50396   1.000
    O2271   O    0.73889   0.95984   0.38238   1.000
    O2272   O    0.71343   0.89668   0.41736   1.000
    O2273   O    0.57773   0.94145   0.31492   1.000
    O2274   O    0.65057   0.91093   0.34586   1.000
    H2275   H    0.71098   0.77378   0.67253   1.000
    H2276   H    0.73468   0.84083   0.51485   1.000
    H2277   H    0.74927   0.81471   0.55251   1.000
    H2278   H    0.82446   0.86305   0.38423   1.000
    H2279   H    0.77869   0.81764   0.45366   1.000
    H2280   H    0.58302   0.03939   0.29936   1.000
    H2281   H    0.66710   0.01158   0.27082   1.000
    H2282   H    0.54151   0.99626   0.36801   1.000
    H2283   H    0.51443   0.00759   0.40797   1.000
    H2284   H    0.58302   0.92083   0.41181   1.000
    H2285   H    0.55606   0.93203   0.45151   1.000
    H2286   H    0.63910   0.90893   0.47439   1.000
    H2287   H    0.59165   0.92451   0.49049   1.000
    H2288   H    0.72592   0.99270   0.34198   1.000
    H2289   H    0.70310   0.03548   0.31624   1.000
    H2290   H    0.69105   0.02072   0.40637   1.000
    H2291   H    0.66869   0.06289   0.38102   1.000
    C2292   C    0.42240   0.46092   0.56944   1.000
    C2293   C    0.36102   0.39955   0.72696   1.000
    C2294   C    0.37603   0.41455   0.70539   1.000
    C2295   C    0.31679   0.40521   0.85054   1.000
    C2296   C    0.31227   0.38220   0.83063   1.000
    C2297   C    0.31089   0.40641   0.83104   1.000
    C2298   C    0.30458   0.43068   0.81170   1.000
    C2299   C    0.18594   0.20837   0.95726   1.000
    C2300   C    0.15936   0.25305   0.96258   1.000
    C2301   C    0.18218   0.22795   0.96494   1.000
    C2302   C    0.20145   0.22390   0.97322   1.000
    C2303   C    0.16297   0.26799   0.86389   1.000
    C2304   C    0.14404   0.29961   0.88804   1.000
    C2305   C    0.15870   0.29240   0.86360   1.000
    C2306   C    0.17681   0.26152   0.84085   1.000
    C2307   C    0.20310   0.27199   0.79230   1.000
    C2308   C    0.18675   0.27927   0.81672   1.000
    C2309   C    0.16851   0.31016   0.83943   1.000
    C2310   C    0.18222   0.30374   0.81647   1.000
    C2311   C    0.28425   0.32264   0.77212   1.000
    C2312   C    0.27520   0.31363   0.76276   1.000
    C2313   C    0.32224   0.24194   0.89950   1.000
    C2314   C    0.34166   0.27304   0.85700   1.000
    C2315   C    0.33972   0.24672   0.87369   1.000
    C2316   C    0.31889   0.21750   0.91423   1.000
    C2317   C    0.07796   0.33257   0.92138   1.000
    C2318   C    0.33299   0.19747   0.90339   1.000
    C2319   C    0.35438   0.22638   0.86331   1.000
    C2320   C    0.35111   0.20213   0.87794   1.000
    O2321   O    0.42559   0.46103   0.61124   1.000
    O2322   O    0.33327   0.36883   0.77265   1.000
    O2323   O    0.40801   0.44352   0.66370   1.000
    O2324   O    0.30637   0.38370   0.81320   1.000
    O2325   O    0.36082   0.31969   0.84773   1.000
    O2326   O    0.14341   0.25626   0.95352   1.000
    O2327   O    0.09285   0.28098   0.97946   1.000
    O2328   O    0.13396   0.28390   0.90937   1.000
    O2329   O    0.14205   0.32149   0.88647   1.000
    O2330   O    0.20797   0.24927   0.79336   1.000
    O2331   O    0.21218   0.28867   0.77143   1.000
    O2332   O    0.30379   0.33926   0.79140   1.000
    O2333   O    0.25801   0.29346   0.74604   1.000
    O2334   O    0.33112   0.29016   0.86762   1.000
    O2335   O    0.27746   0.35332   0.83264   1.000
    O2336   O    0.08410   0.30855   0.93508   1.000
    O2337   O    0.15737   0.33907   0.90414   1.000
    H2338   H    0.40729   0.47622   0.57747   1.000
    H2339   H    0.34037   0.40917   0.73515   1.000
    H2340   H    0.36649   0.43529   0.69749   1.000
    H2341   H    0.32174   0.38695   0.86577   1.000
    H2342   H    0.29999   0.43236   0.79634   1.000
    H2343   H    0.17176   0.21061   0.95064   1.000
    H2344   H    0.19950   0.23842   0.97918   1.000
    H2345   H    0.15579   0.25374   0.88199   1.000
    H2346   H    0.17998   0.24241   0.84203   1.000
    H2347   H    0.16567   0.32917   0.83819   1.000
    H2348   H    0.18961   0.31797   0.79849   1.000
    H2349   H    0.27242   0.34107   0.77561   1.000
    H2350   H    0.25665   0.32549   0.75951   1.000
    H2351   H    0.31059   0.25730   0.90802   1.000
    H2352   H    0.30483   0.21452   0.93376   1.000
    H2353   H    0.36814   0.22928   0.84363   1.000
    H2354   H    0.36260   0.18711   0.86898   1.000
    C2355   C    0.46092   0.42240   0.54723   1.000
    C2356   C    0.39955   0.36102   0.51247   1.000
    C2357   C    0.41455   0.37603   0.50403   1.000
    C2358   C    0.40521   0.31679   0.42746   1.000
    C2359   C    0.38220   0.31227   0.47489   1.000
    C2360   C    0.40641   0.31089   0.45167   1.000
    C2361   C    0.43068   0.30458   0.45304   1.000
    C2362   C    0.20837   0.18594   0.64843   1.000
    C2363   C    0.25305   0.15936   0.62501   1.000
    C2364   C    0.22795   0.18218   0.62494   1.000
    C2365   C    0.22390   0.20145   0.60143   1.000
    C2366   C    0.26799   0.16297   0.70516   1.000
    C2367   C    0.29961   0.14404   0.66831   1.000
    C2368   C    0.29240   0.15870   0.68530   1.000
    C2369   C    0.26152   0.17681   0.72083   1.000
    C2370   C    0.27199   0.20310   0.73261   1.000
    C2371   C    0.27927   0.18675   0.71726   1.000
    C2372   C    0.31016   0.16851   0.68190   1.000
    C2373   C    0.30374   0.18222   0.69757   1.000
    C2374   C    0.32264   0.28425   0.62099   1.000
    C2375   C    0.31363   0.27520   0.64841   1.000
    C2376   C    0.24194   0.32224   0.53632   1.000
    C2377   C    0.27304   0.34166   0.52830   1.000
    C2378   C    0.24672   0.33972   0.53987   1.000
    C2379   C    0.21750   0.31889   0.54938   1.000
    C2380   C    0.33257   0.07796   0.66808   1.000
    C2381   C    0.19747   0.33299   0.56615   1.000
    C2382   C    0.22638   0.35438   0.55592   1.000
    C2383   C    0.20213   0.35111   0.56881   1.000
    O2384   O    0.46103   0.42559   0.50214   1.000
    O2385   O    0.36883   0.33327   0.52525   1.000
    O2386   O    0.44352   0.40801   0.48477   1.000
    O2387   O    0.38370   0.30637   0.49673   1.000
    O2388   O    0.31969   0.36082   0.47176   1.000
    O2389   O    0.25626   0.14341   0.64681   1.000
    O2390   O    0.28098   0.09285   0.64670   1.000
    O2391   O    0.28390   0.13396   0.67277   1.000
    O2392   O    0.32149   0.14205   0.65000   1.000
    O2393   O    0.24927   0.20797   0.74940   1.000
    O2394   O    0.28867   0.21218   0.72771   1.000
    O2395   O    0.33926   0.30379   0.56556   1.000
    O2396   O    0.29346   0.25801   0.70249   1.000
    O2397   O    0.29016   0.33112   0.51111   1.000
    O2398   O    0.35332   0.27746   0.53657   1.000
    O2399   O    0.30855   0.08410   0.67227   1.000
    O2400   O    0.33907   0.15737   0.59943   1.000
    H2401   H    0.47622   0.40729   0.53902   1.000
    H2402   H    0.40917   0.34037   0.51532   1.000
    H2403   H    0.43529   0.36649   0.50073   1.000
    H2404   H    0.38695   0.32174   0.42554   1.000
    H2405   H    0.43236   0.29999   0.47131   1.000
    H2406   H    0.21061   0.17176   0.66698   1.000
    H2407   H    0.23842   0.19950   0.58290   1.000
    H2408   H    0.25374   0.15579   0.70849   1.000
    H2409   H    0.24241   0.17998   0.73557   1.000
    H2410   H    0.32917   0.16567   0.66698   1.000
    H2411   H    0.31797   0.18961   0.69394   1.000
    H2412   H    0.34107   0.27242   0.61090   1.000
    H2413   H    0.32549   0.25665   0.65835   1.000
    H2414   H    0.25730   0.31059   0.52408   1.000
    H2415   H    0.21452   0.30483   0.54690   1.000
    H2416   H    0.22928   0.36814   0.55895   1.000
    H2417   H    0.18711   0.36260   0.58131   1.000
    C2418   C    0.54723   0.56944   0.46092   1.000
    C2419   C    0.51247   0.72696   0.39955   1.000
    C2420   C    0.50403   0.70539   0.41455   1.000
    C2421   C    0.42746   0.85054   0.40521   1.000
    C2422   C    0.47489   0.83063   0.38220   1.000
    C2423   C    0.45167   0.83104   0.40641   1.000
    C2424   C    0.45304   0.81170   0.43068   1.000
    C2425   C    0.64843   0.95726   0.20837   1.000
    C2426   C    0.62501   0.96258   0.25305   1.000
    C2427   C    0.62494   0.96494   0.22795   1.000
    C2428   C    0.60143   0.97322   0.22390   1.000
    C2429   C    0.70516   0.86389   0.26799   1.000
    C2430   C    0.66831   0.88804   0.29961   1.000
    C2431   C    0.68530   0.86360   0.29240   1.000
    C2432   C    0.72083   0.84085   0.26152   1.000
    C2433   C    0.73261   0.79230   0.27199   1.000
    C2434   C    0.71726   0.81672   0.27927   1.000
    C2435   C    0.68190   0.83943   0.31016   1.000
    C2436   C    0.69757   0.81647   0.30374   1.000
    C2437   C    0.62099   0.77212   0.32264   1.000
    C2438   C    0.64841   0.76276   0.31363   1.000
    C2439   C    0.53632   0.89950   0.24194   1.000
    C2440   C    0.52830   0.85700   0.27304   1.000
    C2441   C    0.53987   0.87369   0.24672   1.000
    C2442   C    0.54938   0.91423   0.21750   1.000
    C2443   C    0.66808   0.92138   0.33257   1.000
    C2444   C    0.56615   0.90339   0.19747   1.000
    C2445   C    0.55592   0.86331   0.22638   1.000
    C2446   C    0.56881   0.87794   0.20213   1.000
    O2447   O    0.50214   0.61124   0.46103   1.000
    O2448   O    0.52525   0.77265   0.36883   1.000
    O2449   O    0.48477   0.66370   0.44352   1.000
    O2450   O    0.49673   0.81320   0.38370   1.000
    O2451   O    0.47176   0.84773   0.31969   1.000
    O2452   O    0.64681   0.95352   0.25626   1.000
    O2453   O    0.64670   0.97946   0.28098   1.000
    O2454   O    0.67277   0.90937   0.28390   1.000
    O2455   O    0.65000   0.88647   0.32149   1.000
    O2456   O    0.74940   0.79336   0.24927   1.000
    O2457   O    0.72771   0.77143   0.28867   1.000
    O2458   O    0.56556   0.79140   0.33926   1.000
    O2459   O    0.70249   0.74604   0.29346   1.000
    O2460   O    0.51111   0.86762   0.29016   1.000
    O2461   O    0.53657   0.83264   0.35332   1.000
    O2462   O    0.67227   0.93508   0.30855   1.000
    O2463   O    0.59943   0.90414   0.33907   1.000
    H2464   H    0.53902   0.57747   0.47622   1.000
    H2465   H    0.51532   0.73515   0.40917   1.000
    H2466   H    0.50073   0.69749   0.43529   1.000
    H2467   H    0.42554   0.86577   0.38695   1.000
    H2468   H    0.47131   0.79634   0.43236   1.000
    H2469   H    0.66698   0.95064   0.21061   1.000
    H2470   H    0.58290   0.97918   0.23842   1.000
    H2471   H    0.70849   0.88199   0.25374   1.000
    H2472   H    0.73557   0.84203   0.24241   1.000
    H2473   H    0.66698   0.83819   0.32917   1.000
    H2474   H    0.69394   0.79849   0.31797   1.000
    H2475   H    0.61090   0.77561   0.34107   1.000
    H2476   H    0.65835   0.75951   0.32549   1.000
    H2477   H    0.52408   0.90802   0.25730   1.000
    H2478   H    0.54690   0.93376   0.21452   1.000
    H2479   H    0.55895   0.84363   0.22928   1.000
    H2480   H    0.58131   0.86898   0.18711   1.000
    C2481   C    0.56944   0.54723   0.42240   1.000
    C2482   C    0.72696   0.51247   0.36102   1.000
    C2483   C    0.70539   0.50403   0.37603   1.000
    C2484   C    0.85054   0.42746   0.31679   1.000
    C2485   C    0.83063   0.47489   0.31227   1.000
    C2486   C    0.83104   0.45167   0.31089   1.000
    C2487   C    0.81170   0.45304   0.30458   1.000
    C2488   C    0.95726   0.64843   0.18594   1.000
    C2489   C    0.96258   0.62501   0.15936   1.000
    C2490   C    0.96494   0.62494   0.18218   1.000
    C2491   C    0.97322   0.60143   0.20145   1.000
    C2492   C    0.86389   0.70516   0.16297   1.000
    C2493   C    0.88804   0.66831   0.14404   1.000
    C2494   C    0.86360   0.68530   0.15870   1.000
    C2495   C    0.84085   0.72083   0.17681   1.000
    C2496   C    0.79230   0.73261   0.20310   1.000
    C2497   C    0.81672   0.71726   0.18675   1.000
    C2498   C    0.83943   0.68190   0.16851   1.000
    C2499   C    0.81647   0.69757   0.18222   1.000
    C2500   C    0.77212   0.62099   0.28425   1.000
    C2501   C    0.76276   0.64841   0.27520   1.000
    C2502   C    0.89950   0.53632   0.32224   1.000
    C2503   C    0.85700   0.52830   0.34166   1.000
    C2504   C    0.87369   0.53987   0.33972   1.000
    C2505   C    0.91423   0.54938   0.31889   1.000
    C2506   C    0.92138   0.66808   0.07796   1.000
    C2507   C    0.90339   0.56615   0.33299   1.000
    C2508   C    0.86331   0.55592   0.35438   1.000
    C2509   C    0.87794   0.56881   0.35111   1.000
    O2510   O    0.61124   0.50214   0.42559   1.000
    O2511   O    0.77265   0.52525   0.33327   1.000
    O2512   O    0.66370   0.48477   0.40801   1.000
    O2513   O    0.81320   0.49673   0.30637   1.000
    O2514   O    0.84773   0.47176   0.36082   1.000
    O2515   O    0.95352   0.64681   0.14341   1.000
    O2516   O    0.97946   0.64670   0.09285   1.000
    O2517   O    0.90937   0.67277   0.13396   1.000
    O2518   O    0.88647   0.65000   0.14205   1.000
    O2519   O    0.79336   0.74940   0.20797   1.000
    O2520   O    0.77143   0.72771   0.21218   1.000
    O2521   O    0.79140   0.56556   0.30379   1.000
    O2522   O    0.74604   0.70249   0.25801   1.000
    O2523   O    0.86762   0.51111   0.33112   1.000
    O2524   O    0.83264   0.53657   0.27746   1.000
    O2525   O    0.93508   0.67227   0.08410   1.000
    O2526   O    0.90414   0.59943   0.15737   1.000
    H2527   H    0.57747   0.53902   0.40729   1.000
    H2528   H    0.73515   0.51532   0.34037   1.000
    H2529   H    0.69749   0.50073   0.36649   1.000
    H2530   H    0.86577   0.42554   0.32174   1.000
    H2531   H    0.79634   0.47131   0.29999   1.000
    H2532   H    0.95064   0.66698   0.17176   1.000
    H2533   H    0.97918   0.58290   0.19950   1.000
    H2534   H    0.88199   0.70849   0.15579   1.000
    H2535   H    0.84203   0.73557   0.17998   1.000
    H2536   H    0.83819   0.66698   0.16567   1.000
    H2537   H    0.79849   0.69394   0.18961   1.000
    H2538   H    0.77561   0.61090   0.27242   1.000
    H2539   H    0.75951   0.65835   0.25665   1.000
    H2540   H    0.90802   0.52408   0.31059   1.000
    H2541   H    0.93376   0.54690   0.30483   1.000
    H2542   H    0.84363   0.55895   0.36814   1.000
    H2543   H    0.86898   0.58131   0.36260   1.000
    C2544   C    0.54723   0.42240   0.56944   1.000
    C2545   C    0.51247   0.36102   0.72696   1.000
    C2546   C    0.50403   0.37603   0.70539   1.000
    C2547   C    0.42746   0.31679   0.85054   1.000
    C2548   C    0.47489   0.31227   0.83063   1.000
    C2549   C    0.45167   0.31089   0.83104   1.000
    C2550   C    0.45304   0.30458   0.81170   1.000
    C2551   C    0.64843   0.18594   0.95726   1.000
    C2552   C    0.62501   0.15936   0.96258   1.000
    C2553   C    0.62494   0.18218   0.96494   1.000
    C2554   C    0.60143   0.20145   0.97322   1.000
    C2555   C    0.70516   0.16297   0.86389   1.000
    C2556   C    0.66831   0.14404   0.88804   1.000
    C2557   C    0.68530   0.15870   0.86360   1.000
    C2558   C    0.72083   0.17681   0.84085   1.000
    C2559   C    0.73261   0.20310   0.79230   1.000
    C2560   C    0.71726   0.18675   0.81672   1.000
    C2561   C    0.68190   0.16851   0.83943   1.000
    C2562   C    0.69757   0.18222   0.81647   1.000
    C2563   C    0.62099   0.28425   0.77212   1.000
    C2564   C    0.64841   0.27520   0.76276   1.000
    C2565   C    0.53632   0.32224   0.89950   1.000
    C2566   C    0.52830   0.34166   0.85700   1.000
    C2567   C    0.53987   0.33972   0.87369   1.000
    C2568   C    0.54938   0.31889   0.91423   1.000
    C2569   C    0.66808   0.07796   0.92138   1.000
    C2570   C    0.56615   0.33299   0.90339   1.000
    C2571   C    0.55592   0.35438   0.86331   1.000
    C2572   C    0.56881   0.35111   0.87794   1.000
    O2573   O    0.50214   0.42559   0.61124   1.000
    O2574   O    0.52525   0.33327   0.77265   1.000
    O2575   O    0.48477   0.40801   0.66370   1.000
    O2576   O    0.49673   0.30637   0.81320   1.000
    O2577   O    0.47176   0.36082   0.84773   1.000
    O2578   O    0.64681   0.14341   0.95352   1.000
    O2579   O    0.64670   0.09285   0.97946   1.000
    O2580   O    0.67277   0.13396   0.90937   1.000
    O2581   O    0.65000   0.14205   0.88647   1.000
    O2582   O    0.74940   0.20797   0.79336   1.000
    O2583   O    0.72771   0.21218   0.77143   1.000
    O2584   O    0.56556   0.30379   0.79140   1.000
    O2585   O    0.70249   0.25801   0.74604   1.000
    O2586   O    0.51111   0.33112   0.86762   1.000
    O2587   O    0.53657   0.27746   0.83264   1.000
    O2588   O    0.67227   0.08410   0.93508   1.000
    O2589   O    0.59943   0.15737   0.90414   1.000
    H2590   H    0.53902   0.40729   0.57747   1.000
    H2591   H    0.51532   0.34037   0.73515   1.000
    H2592   H    0.50073   0.36649   0.69749   1.000
    H2593   H    0.42554   0.32174   0.86577   1.000
    H2594   H    0.47131   0.29999   0.79634   1.000
    H2595   H    0.66698   0.17176   0.95064   1.000
    H2596   H    0.58290   0.19950   0.97918   1.000
    H2597   H    0.70849   0.15579   0.88199   1.000
    H2598   H    0.73557   0.17998   0.84203   1.000
    H2599   H    0.66698   0.16567   0.83819   1.000
    H2600   H    0.69394   0.18961   0.79849   1.000
    H2601   H    0.61090   0.27242   0.77561   1.000
    H2602   H    0.65835   0.25665   0.75951   1.000
    H2603   H    0.52408   0.31059   0.90802   1.000
    H2604   H    0.54690   0.30483   0.93376   1.000
    H2605   H    0.55895   0.36814   0.84363   1.000
    H2606   H    0.58131   0.36260   0.86898   1.000
    C2607   C    0.56944   0.46092   0.54723   1.000
    C2608   C    0.72696   0.39955   0.51247   1.000
    C2609   C    0.70539   0.41455   0.50403   1.000
    C2610   C    0.85054   0.40521   0.42746   1.000
    C2611   C    0.83063   0.38220   0.47489   1.000
    C2612   C    0.83104   0.40641   0.45167   1.000
    C2613   C    0.81170   0.43068   0.45304   1.000
    C2614   C    0.95726   0.20837   0.64843   1.000
    C2615   C    0.96258   0.25305   0.62501   1.000
    C2616   C    0.96494   0.22795   0.62494   1.000
    C2617   C    0.97322   0.22390   0.60143   1.000
    C2618   C    0.86389   0.26799   0.70516   1.000
    C2619   C    0.88804   0.29961   0.66831   1.000
    C2620   C    0.86360   0.29240   0.68530   1.000
    C2621   C    0.84085   0.26152   0.72083   1.000
    C2622   C    0.79230   0.27199   0.73261   1.000
    C2623   C    0.81672   0.27927   0.71726   1.000
    C2624   C    0.83943   0.31016   0.68190   1.000
    C2625   C    0.81647   0.30374   0.69757   1.000
    C2626   C    0.77212   0.32264   0.62099   1.000
    C2627   C    0.76276   0.31363   0.64841   1.000
    C2628   C    0.89950   0.24194   0.53632   1.000
    C2629   C    0.85700   0.27304   0.52830   1.000
    C2630   C    0.87369   0.24672   0.53987   1.000
    C2631   C    0.91423   0.21750   0.54938   1.000
    C2632   C    0.92138   0.33257   0.66808   1.000
    C2633   C    0.90339   0.19747   0.56615   1.000
    C2634   C    0.86331   0.22638   0.55592   1.000
    C2635   C    0.87794   0.20213   0.56881   1.000
    O2636   O    0.61124   0.46103   0.50214   1.000
    O2637   O    0.77265   0.36883   0.52525   1.000
    O2638   O    0.66370   0.44352   0.48477   1.000
    O2639   O    0.81320   0.38370   0.49673   1.000
    O2640   O    0.84773   0.31969   0.47176   1.000
    O2641   O    0.95352   0.25626   0.64681   1.000
    O2642   O    0.97946   0.28098   0.64670   1.000
    O2643   O    0.90937   0.28390   0.67277   1.000
    O2644   O    0.88647   0.32149   0.65000   1.000
    O2645   O    0.79336   0.24927   0.74940   1.000
    O2646   O    0.77143   0.28867   0.72771   1.000
    O2647   O    0.79140   0.33926   0.56556   1.000
    O2648   O    0.74604   0.29346   0.70249   1.000
    O2649   O    0.86762   0.29016   0.51111   1.000
    O2650   O    0.83264   0.35332   0.53657   1.000
    O2651   O    0.93508   0.30855   0.67227   1.000
    O2652   O    0.90414   0.33907   0.59943   1.000
    H2653   H    0.57747   0.47622   0.53902   1.000
    H2654   H    0.73515   0.40917   0.51532   1.000
    H2655   H    0.69749   0.43529   0.50073   1.000
    H2656   H    0.86577   0.38695   0.42554   1.000
    H2657   H    0.79634   0.43236   0.47131   1.000
    H2658   H    0.95064   0.21061   0.66698   1.000
    H2659   H    0.97918   0.23842   0.58290   1.000
    H2660   H    0.88199   0.25374   0.70849   1.000
    H2661   H    0.84203   0.24241   0.73557   1.000
    H2662   H    0.83819   0.32917   0.66698   1.000
    H2663   H    0.79849   0.31797   0.69394   1.000
    H2664   H    0.77561   0.34107   0.61090   1.000
    H2665   H    0.75951   0.32549   0.65835   1.000
    H2666   H    0.90802   0.25730   0.52408   1.000
    H2667   H    0.93376   0.21452   0.54690   1.000
    H2668   H    0.84363   0.22928   0.55895   1.000
    H2669   H    0.86898   0.18711   0.58131   1.000
    C2670   C    0.42240   0.54723   0.46092   1.000
    C2671   C    0.36102   0.51247   0.39955   1.000
    C2672   C    0.37603   0.50403   0.41455   1.000
    C2673   C    0.31679   0.42746   0.40521   1.000
    C2674   C    0.31227   0.47489   0.38220   1.000
    C2675   C    0.31089   0.45167   0.40641   1.000
    C2676   C    0.30458   0.45304   0.43068   1.000
    C2677   C    0.18594   0.64843   0.20837   1.000
    C2678   C    0.15936   0.62501   0.25305   1.000
    C2679   C    0.18218   0.62494   0.22795   1.000
    C2680   C    0.20145   0.60143   0.22390   1.000
    C2681   C    0.16297   0.70516   0.26799   1.000
    C2682   C    0.14404   0.66831   0.29961   1.000
    C2683   C    0.15870   0.68530   0.29240   1.000
    C2684   C    0.17681   0.72083   0.26152   1.000
    C2685   C    0.20310   0.73261   0.27199   1.000
    C2686   C    0.18675   0.71726   0.27927   1.000
    C2687   C    0.16851   0.68190   0.31016   1.000
    C2688   C    0.18222   0.69757   0.30374   1.000
    C2689   C    0.28425   0.62099   0.32264   1.000
    C2690   C    0.27520   0.64841   0.31363   1.000
    C2691   C    0.32224   0.53632   0.24194   1.000
    C2692   C    0.34166   0.52830   0.27304   1.000
    C2693   C    0.33972   0.53987   0.24672   1.000
    C2694   C    0.31889   0.54938   0.21750   1.000
    C2695   C    0.07796   0.66808   0.33257   1.000
    C2696   C    0.33299   0.56615   0.19747   1.000
    C2697   C    0.35438   0.55592   0.22638   1.000
    C2698   C    0.35111   0.56881   0.20213   1.000
    O2699   O    0.42559   0.50214   0.46103   1.000
    O2700   O    0.33327   0.52525   0.36883   1.000
    O2701   O    0.40801   0.48477   0.44352   1.000
    O2702   O    0.30637   0.49673   0.38370   1.000
    O2703   O    0.36082   0.47176   0.31969   1.000
    O2704   O    0.14341   0.64681   0.25626   1.000
    O2705   O    0.09285   0.64670   0.28098   1.000
    O2706   O    0.13396   0.67277   0.28390   1.000
    O2707   O    0.14205   0.65000   0.32149   1.000
    O2708   O    0.20797   0.74940   0.24927   1.000
    O2709   O    0.21218   0.72771   0.28867   1.000
    O2710   O    0.30379   0.56556   0.33926   1.000
    O2711   O    0.25801   0.70249   0.29346   1.000
    O2712   O    0.33112   0.51111   0.29016   1.000
    O2713   O    0.27746   0.53657   0.35332   1.000
    O2714   O    0.08410   0.67227   0.30855   1.000
    O2715   O    0.15737   0.59943   0.33907   1.000
    H2716   H    0.40729   0.53902   0.47622   1.000
    H2717   H    0.34037   0.51532   0.40917   1.000
    H2718   H    0.36649   0.50073   0.43529   1.000
    H2719   H    0.32174   0.42554   0.38695   1.000
    H2720   H    0.29999   0.47131   0.43236   1.000
    H2721   H    0.17176   0.66698   0.21061   1.000
    H2722   H    0.19950   0.58290   0.23842   1.000
    H2723   H    0.15579   0.70849   0.25374   1.000
    H2724   H    0.17998   0.73557   0.24241   1.000
    H2725   H    0.16567   0.66698   0.32917   1.000
    H2726   H    0.18961   0.69394   0.31797   1.000
    H2727   H    0.27242   0.61090   0.34107   1.000
    H2728   H    0.25665   0.65835   0.32549   1.000
    H2729   H    0.31059   0.52408   0.25730   1.000
    H2730   H    0.30483   0.54690   0.21452   1.000
    H2731   H    0.36814   0.55895   0.22928   1.000
    H2732   H    0.36260   0.58131   0.18711   1.000
    C2733   C    0.46092   0.56944   0.42240   1.000
    C2734   C    0.39955   0.72696   0.36102   1.000
    C2735   C    0.41455   0.70539   0.37603   1.000
    C2736   C    0.40521   0.85054   0.31679   1.000
    C2737   C    0.38220   0.83063   0.31227   1.000
    C2738   C    0.40641   0.83104   0.31089   1.000
    C2739   C    0.43068   0.81170   0.30458   1.000
    C2740   C    0.20837   0.95726   0.18594   1.000
    C2741   C    0.25305   0.96258   0.15936   1.000
    C2742   C    0.22795   0.96494   0.18218   1.000
    C2743   C    0.22390   0.97322   0.20145   1.000
    C2744   C    0.26799   0.86389   0.16297   1.000
    C2745   C    0.29961   0.88804   0.14404   1.000
    C2746   C    0.29240   0.86360   0.15870   1.000
    C2747   C    0.26152   0.84085   0.17681   1.000
    C2748   C    0.27199   0.79230   0.20310   1.000
    C2749   C    0.27927   0.81672   0.18675   1.000
    C2750   C    0.31016   0.83943   0.16851   1.000
    C2751   C    0.30374   0.81647   0.18222   1.000
    C2752   C    0.32264   0.77212   0.28425   1.000
    C2753   C    0.31363   0.76276   0.27520   1.000
    C2754   C    0.24194   0.89950   0.32224   1.000
    C2755   C    0.27304   0.85700   0.34166   1.000
    C2756   C    0.24672   0.87369   0.33972   1.000
    C2757   C    0.21750   0.91423   0.31889   1.000
    C2758   C    0.33257   0.92138   0.07796   1.000
    C2759   C    0.19747   0.90339   0.33299   1.000
    C2760   C    0.22638   0.86331   0.35438   1.000
    C2761   C    0.20213   0.87794   0.35111   1.000
    O2762   O    0.46103   0.61124   0.42559   1.000
    O2763   O    0.36883   0.77265   0.33327   1.000
    O2764   O    0.44352   0.66370   0.40801   1.000
    O2765   O    0.38370   0.81320   0.30637   1.000
    O2766   O    0.31969   0.84773   0.36082   1.000
    O2767   O    0.25626   0.95352   0.14341   1.000
    O2768   O    0.28098   0.97946   0.09285   1.000
    O2769   O    0.28390   0.90937   0.13396   1.000
    O2770   O    0.32149   0.88647   0.14205   1.000
    O2771   O    0.24927   0.79336   0.20797   1.000
    O2772   O    0.28867   0.77143   0.21218   1.000
    O2773   O    0.33926   0.79140   0.30379   1.000
    O2774   O    0.29346   0.74604   0.25801   1.000
    O2775   O    0.29016   0.86762   0.33112   1.000
    O2776   O    0.35332   0.83264   0.27746   1.000
    O2777   O    0.30855   0.93508   0.08410   1.000
    O2778   O    0.33907   0.90414   0.15737   1.000
    H2779   H    0.47622   0.57747   0.40729   1.000
    H2780   H    0.40917   0.73515   0.34037   1.000
    H2781   H    0.43529   0.69749   0.36649   1.000
    H2782   H    0.38695   0.86577   0.32174   1.000
    H2783   H    0.43236   0.79634   0.29999   1.000
    H2784   H    0.21061   0.95064   0.17176   1.000
    H2785   H    0.23842   0.97918   0.19950   1.000
    H2786   H    0.25374   0.88199   0.15579   1.000
    H2787   H    0.24241   0.84203   0.17998   1.000
    H2788   H    0.32917   0.83819   0.16567   1.000
    H2789   H    0.31797   0.79849   0.18961   1.000
    H2790   H    0.34107   0.77561   0.27242   1.000
    H2791   H    0.32549   0.75951   0.25665   1.000
    H2792   H    0.25730   0.90802   0.31059   1.000
    H2793   H    0.21452   0.93376   0.30483   1.000
    H2794   H    0.22928   0.84363   0.36814   1.000
    H2795   H    0.18711   0.86898   0.36260   1.000
    C2796   C    0.46092   0.54723   0.56944   1.000
    C2797   C    0.39955   0.51247   0.72696   1.000
    C2798   C    0.41455   0.50403   0.70539   1.000
    C2799   C    0.40521   0.42746   0.85054   1.000
    C2800   C    0.38220   0.47489   0.83063   1.000
    C2801   C    0.40641   0.45167   0.83104   1.000
    C2802   C    0.43068   0.45304   0.81170   1.000
    C2803   C    0.20837   0.64843   0.95726   1.000
    C2804   C    0.25305   0.62501   0.96258   1.000
    C2805   C    0.22795   0.62494   0.96494   1.000
    C2806   C    0.22390   0.60143   0.97322   1.000
    C2807   C    0.26799   0.70516   0.86389   1.000
    C2808   C    0.29961   0.66831   0.88804   1.000
    C2809   C    0.29240   0.68530   0.86360   1.000
    C2810   C    0.26152   0.72083   0.84085   1.000
    C2811   C    0.27199   0.73261   0.79230   1.000
    C2812   C    0.27927   0.71726   0.81672   1.000
    C2813   C    0.31016   0.68190   0.83943   1.000
    C2814   C    0.30374   0.69757   0.81647   1.000
    C2815   C    0.32264   0.62099   0.77212   1.000
    C2816   C    0.31363   0.64841   0.76276   1.000
    C2817   C    0.24194   0.53632   0.89950   1.000
    C2818   C    0.27304   0.52830   0.85700   1.000
    C2819   C    0.24672   0.53987   0.87369   1.000
    C2820   C    0.21750   0.54938   0.91423   1.000
    C2821   C    0.33257   0.66808   0.92138   1.000
    C2822   C    0.19747   0.56615   0.90339   1.000
    C2823   C    0.22638   0.55592   0.86331   1.000
    C2824   C    0.20213   0.56881   0.87794   1.000
    O2825   O    0.46103   0.50214   0.61124   1.000
    O2826   O    0.36883   0.52525   0.77265   1.000
    O2827   O    0.44352   0.48477   0.66370   1.000
    O2828   O    0.38370   0.49673   0.81320   1.000
    O2829   O    0.31969   0.47176   0.84773   1.000
    O2830   O    0.25626   0.64681   0.95352   1.000
    O2831   O    0.28098   0.64670   0.97946   1.000
    O2832   O    0.28390   0.67277   0.90937   1.000
    O2833   O    0.32149   0.65000   0.88647   1.000
    O2834   O    0.24927   0.74940   0.79336   1.000
    O2835   O    0.28867   0.72771   0.77143   1.000
    O2836   O    0.33926   0.56556   0.79140   1.000
    O2837   O    0.29346   0.70249   0.74604   1.000
    O2838   O    0.29016   0.51111   0.86762   1.000
    O2839   O    0.35332   0.53657   0.83264   1.000
    O2840   O    0.30855   0.67227   0.93508   1.000
    O2841   O    0.33907   0.59943   0.90414   1.000
    H2842   H    0.47622   0.53902   0.57747   1.000
    H2843   H    0.40917   0.51532   0.73515   1.000
    H2844   H    0.43529   0.50073   0.69749   1.000
    H2845   H    0.38695   0.42554   0.86577   1.000
    H2846   H    0.43236   0.47131   0.79634   1.000
    H2847   H    0.21061   0.66698   0.95064   1.000
    H2848   H    0.23842   0.58290   0.97918   1.000
    H2849   H    0.25374   0.70849   0.88199   1.000
    H2850   H    0.24241   0.73557   0.84203   1.000
    H2851   H    0.32917   0.66698   0.83819   1.000
    H2852   H    0.31797   0.69394   0.79849   1.000
    H2853   H    0.34107   0.61090   0.77561   1.000
    H2854   H    0.32549   0.65835   0.75951   1.000
    H2855   H    0.25730   0.52408   0.90802   1.000
    H2856   H    0.21452   0.54690   0.93376   1.000
    H2857   H    0.22928   0.55895   0.84363   1.000
    H2858   H    0.18711   0.58131   0.86898   1.000
    C2859   C    0.42240   0.56944   0.54723   1.000
    C2860   C    0.36102   0.72696   0.51247   1.000
    C2861   C    0.37603   0.70539   0.50403   1.000
    C2862   C    0.31679   0.85054   0.42746   1.000
    C2863   C    0.31227   0.83063   0.47489   1.000
    C2864   C    0.31089   0.83104   0.45167   1.000
    C2865   C    0.30458   0.81170   0.45304   1.000
    C2866   C    0.18594   0.95726   0.64843   1.000
    C2867   C    0.15936   0.96258   0.62501   1.000
    C2868   C    0.18218   0.96494   0.62494   1.000
    C2869   C    0.20145   0.97322   0.60143   1.000
    C2870   C    0.16297   0.86389   0.70516   1.000
    C2871   C    0.14404   0.88804   0.66831   1.000
    C2872   C    0.15870   0.86360   0.68530   1.000
    C2873   C    0.17681   0.84085   0.72083   1.000
    C2874   C    0.20310   0.79230   0.73261   1.000
    C2875   C    0.18675   0.81672   0.71726   1.000
    C2876   C    0.16851   0.83943   0.68190   1.000
    C2877   C    0.18222   0.81647   0.69757   1.000
    C2878   C    0.28425   0.77212   0.62099   1.000
    C2879   C    0.27520   0.76276   0.64841   1.000
    C2880   C    0.32224   0.89950   0.53632   1.000
    C2881   C    0.34166   0.85700   0.52830   1.000
    C2882   C    0.33972   0.87369   0.53987   1.000
    C2883   C    0.31889   0.91423   0.54938   1.000
    C2884   C    0.07796   0.92138   0.66808   1.000
    C2885   C    0.33299   0.90339   0.56615   1.000
    C2886   C    0.35438   0.86331   0.55592   1.000
    C2887   C    0.35111   0.87794   0.56881   1.000
    O2888   O    0.42559   0.61124   0.50214   1.000
    O2889   O    0.33327   0.77265   0.52525   1.000
    O2890   O    0.40801   0.66370   0.48477   1.000
    O2891   O    0.30637   0.81320   0.49673   1.000
    O2892   O    0.36082   0.84773   0.47176   1.000
    O2893   O    0.14341   0.95352   0.64681   1.000
    O2894   O    0.09285   0.97946   0.64670   1.000
    O2895   O    0.13396   0.90937   0.67277   1.000
    O2896   O    0.14205   0.88647   0.65000   1.000
    O2897   O    0.20797   0.79336   0.74940   1.000
    O2898   O    0.21218   0.77143   0.72771   1.000
    O2899   O    0.30379   0.79140   0.56556   1.000
    O2900   O    0.25801   0.74604   0.70249   1.000
    O2901   O    0.33112   0.86762   0.51111   1.000
    O2902   O    0.27746   0.83264   0.53657   1.000
    O2903   O    0.08410   0.93508   0.67227   1.000
    O2904   O    0.15737   0.90414   0.59943   1.000
    H2905   H    0.40729   0.57747   0.53902   1.000
    H2906   H    0.34037   0.73515   0.51532   1.000
    H2907   H    0.36649   0.69749   0.50073   1.000
    H2908   H    0.32174   0.86577   0.42554   1.000
    H2909   H    0.29999   0.79634   0.47131   1.000
    H2910   H    0.17176   0.95064   0.66698   1.000
    H2911   H    0.19950   0.97918   0.58290   1.000
    H2912   H    0.15579   0.88199   0.70849   1.000
    H2913   H    0.17998   0.84203   0.73557   1.000
    H2914   H    0.16567   0.83819   0.66698   1.000
    H2915   H    0.18961   0.79849   0.69394   1.000
    H2916   H    0.27242   0.77561   0.61090   1.000
    H2917   H    0.25665   0.75951   0.65835   1.000
    H2918   H    0.31059   0.90802   0.52408   1.000
    H2919   H    0.30483   0.93376   0.54690   1.000
    H2920   H    0.36814   0.84363   0.55895   1.000
    H2921   H    0.36260   0.86898   0.58131   1.000
    C2922   C    0.56944   0.42240   0.46092   1.000
    C2923   C    0.72696   0.36102   0.39955   1.000
    C2924   C    0.70539   0.37603   0.41455   1.000
    C2925   C    0.85054   0.31679   0.40521   1.000
    C2926   C    0.83063   0.31227   0.38220   1.000
    C2927   C    0.83104   0.31089   0.40641   1.000
    C2928   C    0.81170   0.30458   0.43068   1.000
    C2929   C    0.95726   0.18594   0.20837   1.000
    C2930   C    0.96258   0.15936   0.25305   1.000
    C2931   C    0.96494   0.18218   0.22795   1.000
    C2932   C    0.97322   0.20145   0.22390   1.000
    C2933   C    0.86389   0.16297   0.26799   1.000
    C2934   C    0.88804   0.14404   0.29961   1.000
    C2935   C    0.86360   0.15870   0.29240   1.000
    C2936   C    0.84085   0.17681   0.26152   1.000
    C2937   C    0.79230   0.20310   0.27199   1.000
    C2938   C    0.81672   0.18675   0.27927   1.000
    C2939   C    0.83943   0.16851   0.31016   1.000
    C2940   C    0.81647   0.18222   0.30374   1.000
    C2941   C    0.77212   0.28425   0.32264   1.000
    C2942   C    0.76276   0.27520   0.31363   1.000
    C2943   C    0.89950   0.32224   0.24194   1.000
    C2944   C    0.85700   0.34166   0.27304   1.000
    C2945   C    0.87369   0.33972   0.24672   1.000
    C2946   C    0.91423   0.31889   0.21750   1.000
    C2947   C    0.92138   0.07796   0.33257   1.000
    C2948   C    0.90339   0.33299   0.19747   1.000
    C2949   C    0.86331   0.35438   0.22638   1.000
    C2950   C    0.87794   0.35111   0.20213   1.000
    O2951   O    0.61124   0.42559   0.46103   1.000
    O2952   O    0.77265   0.33327   0.36883   1.000
    O2953   O    0.66370   0.40801   0.44352   1.000
    O2954   O    0.81320   0.30637   0.38370   1.000
    O2955   O    0.84773   0.36082   0.31969   1.000
    O2956   O    0.95352   0.14341   0.25626   1.000
    O2957   O    0.97946   0.09285   0.28098   1.000
    O2958   O    0.90937   0.13396   0.28390   1.000
    O2959   O    0.88647   0.14205   0.32149   1.000
    O2960   O    0.79336   0.20797   0.24927   1.000
    O2961   O    0.77143   0.21218   0.28867   1.000
    O2962   O    0.79140   0.30379   0.33926   1.000
    O2963   O    0.74604   0.25801   0.29346   1.000
    O2964   O    0.86762   0.33112   0.29016   1.000
    O2965   O    0.83264   0.27746   0.35332   1.000
    O2966   O    0.93508   0.08410   0.30855   1.000
    O2967   O    0.90414   0.15737   0.33907   1.000
    H2968   H    0.57747   0.40729   0.47622   1.000
    H2969   H    0.73515   0.34037   0.40917   1.000
    H2970   H    0.69749   0.36649   0.43529   1.000
    H2971   H    0.86577   0.32174   0.38695   1.000
    H2972   H    0.79634   0.29999   0.43236   1.000
    H2973   H    0.95064   0.17176   0.21061   1.000
    H2974   H    0.97918   0.19950   0.23842   1.000
    H2975   H    0.88199   0.15579   0.25374   1.000
    H2976   H    0.84203   0.17998   0.24241   1.000
    H2977   H    0.83819   0.16567   0.32917   1.000
    H2978   H    0.79849   0.18961   0.31797   1.000
    H2979   H    0.77561   0.27242   0.34107   1.000
    H2980   H    0.75951   0.25665   0.32549   1.000
    H2981   H    0.90802   0.31059   0.25730   1.000
    H2982   H    0.93376   0.30483   0.21452   1.000
    H2983   H    0.84363   0.36814   0.22928   1.000
    H2984   H    0.86898   0.36260   0.18711   1.000
    C2985   C    0.54723   0.46092   0.42240   1.000
    C2986   C    0.51247   0.39955   0.36102   1.000
    C2987   C    0.50403   0.41455   0.37603   1.000
    C2988   C    0.42746   0.40521   0.31679   1.000
    C2989   C    0.47489   0.38220   0.31227   1.000
    C2990   C    0.45167   0.40641   0.31089   1.000
    C2991   C    0.45304   0.43068   0.30458   1.000
    C2992   C    0.64843   0.20837   0.18594   1.000
    C2993   C    0.62501   0.25305   0.15936   1.000
    C2994   C    0.62494   0.22795   0.18218   1.000
    C2995   C    0.60143   0.22390   0.20145   1.000
    C2996   C    0.70516   0.26799   0.16297   1.000
    C2997   C    0.66831   0.29961   0.14404   1.000
    C2998   C    0.68530   0.29240   0.15870   1.000
    C2999   C    0.72083   0.26152   0.17681   1.000
    C3000   C    0.73261   0.27199   0.20310   1.000
    C3001   C    0.71726   0.27927   0.18675   1.000
    C3002   C    0.68190   0.31016   0.16851   1.000
    C3003   C    0.69757   0.30374   0.18222   1.000
    C3004   C    0.62099   0.32264   0.28425   1.000
    C3005   C    0.64841   0.31363   0.27520   1.000
    C3006   C    0.53632   0.24194   0.32224   1.000
    C3007   C    0.52830   0.27304   0.34166   1.000
    C3008   C    0.53987   0.24672   0.33972   1.000
    C3009   C    0.54938   0.21750   0.31889   1.000
    C3010   C    0.66808   0.33257   0.07796   1.000
    C3011   C    0.56615   0.19747   0.33299   1.000
    C3012   C    0.55592   0.22638   0.35438   1.000
    C3013   C    0.56881   0.20213   0.35111   1.000
    O3014   O    0.50214   0.46103   0.42559   1.000
    O3015   O    0.52525   0.36883   0.33327   1.000
    O3016   O    0.48477   0.44352   0.40801   1.000
    O3017   O    0.49673   0.38370   0.30637   1.000
    O3018   O    0.47176   0.31969   0.36082   1.000
    O3019   O    0.64681   0.25626   0.14341   1.000
    O3020   O    0.64670   0.28098   0.09285   1.000
    O3021   O    0.67277   0.28390   0.13396   1.000
    O3022   O    0.65000   0.32149   0.14205   1.000
    O3023   O    0.74940   0.24927   0.20797   1.000
    O3024   O    0.72771   0.28867   0.21218   1.000
    O3025   O    0.56556   0.33926   0.30379   1.000
    O3026   O    0.70249   0.29346   0.25801   1.000
    O3027   O    0.51111   0.29016   0.33112   1.000
    O3028   O    0.53657   0.35332   0.27746   1.000
    O3029   O    0.67227   0.30855   0.08410   1.000
    O3030   O    0.59943   0.33907   0.15737   1.000
    H3031   H    0.53902   0.47622   0.40729   1.000
    H3032   H    0.51532   0.40917   0.34037   1.000
    H3033   H    0.50073   0.43529   0.36649   1.000
    H3034   H    0.42554   0.38695   0.32174   1.000
    H3035   H    0.47131   0.43236   0.29999   1.000
    H3036   H    0.66698   0.21061   0.17176   1.000
    H3037   H    0.58290   0.23842   0.19950   1.000
    H3038   H    0.70849   0.25374   0.15579   1.000
    H3039   H    0.73557   0.24241   0.17998   1.000
    H3040   H    0.66698   0.32917   0.16567   1.000
    H3041   H    0.69394   0.31797   0.18961   1.000
    H3042   H    0.61090   0.34107   0.27242   1.000
    H3043   H    0.65835   0.32549   0.25665   1.000
    H3044   H    0.52408   0.25730   0.31059   1.000
    H3045   H    0.54690   0.21452   0.30483   1.000
    H3046   H    0.55895   0.22928   0.36814   1.000
    H3047   H    0.58131   0.18711   0.36260   1.000
    O3048   O    0.12500   0.31008   0.62500   1.000
    O3049   O    0.31008   0.12500   0.93992   1.000
    O3050   O    0.62500   0.93992   0.12500   1.000
    O3051   O    0.93992   0.62500   0.31008   1.000
    O3052   O    0.62500   0.12500   0.31008   1.000
    O3053   O    0.93992   0.31008   0.12500   1.000
    O3054   O    0.12500   0.62500   0.93992   1.000
    O3055   O    0.31008   0.93992   0.62500   1.000
    O3056   O    0.31008   0.62500   0.12500   1.000
    O3057   O    0.12500   0.93992   0.31008   1.000
    O3058   O    0.93992   0.12500   0.62500   1.000
    O3059   O    0.62500   0.31008   0.93992   1.000
    C3060   C    0.35723   0.35723   0.52298   1.000
    C3061   C    0.37266   0.37266   0.51646   1.000
    C3062   C    0.41918   0.41918   0.48908   1.000
    C3063   C    0.40303   0.40303   0.49938   1.000
    C3064   C    0.31762   0.31762   0.57750   1.000
    C3065   C    0.30807   0.30807   0.60680   1.000
    C3066   C    0.28000   0.28000   0.69049   1.000
    C3067   C    0.28965   0.28965   0.66272   1.000
    O3068   O    0.33063   0.33063   0.51787   1.000
    C3069   C    0.35723   0.35723   0.76256   1.000
    C3070   C    0.37266   0.37266   0.73822   1.000
    C3071   C    0.41918   0.41918   0.67257   1.000
    C3072   C    0.40303   0.40303   0.69455   1.000
    C3073   C    0.31762   0.31762   0.78725   1.000
    C3074   C    0.30807   0.30807   0.77705   1.000
    C3075   C    0.28000   0.28000   0.74951   1.000
    C3076   C    0.28965   0.28965   0.75798   1.000
    O3077   O    0.33063   0.33063   0.82086   1.000
    C3078   C    0.52298   0.76256   0.35723   1.000
    C3079   C    0.51646   0.73822   0.37266   1.000
    C3080   C    0.48908   0.67257   0.41918   1.000
    C3081   C    0.49938   0.69455   0.40303   1.000
    C3082   C    0.57750   0.78725   0.31762   1.000
    C3083   C    0.60680   0.77705   0.30807   1.000
    C3084   C    0.69049   0.74951   0.28000   1.000
    C3085   C    0.66272   0.75798   0.28965   1.000
    O3086   O    0.51787   0.82086   0.33063   1.000
    C3087   C    0.76256   0.52298   0.35723   1.000
    C3088   C    0.73822   0.51646   0.37266   1.000
    C3089   C    0.67257   0.48908   0.41918   1.000
    C3090   C    0.69455   0.49938   0.40303   1.000
    C3091   C    0.78725   0.57750   0.31762   1.000
    C3092   C    0.77705   0.60680   0.30807   1.000
    C3093   C    0.74951   0.69049   0.28000   1.000
    C3094   C    0.75798   0.66272   0.28965   1.000
    O3095   O    0.82086   0.51787   0.33063   1.000
    C3096   C    0.52298   0.35723   0.35723   1.000
    C3097   C    0.51646   0.37266   0.37266   1.000
    C3098   C    0.48908   0.41918   0.41918   1.000
    C3099   C    0.49938   0.40303   0.40303   1.000
    C3100   C    0.57750   0.31762   0.31762   1.000
    C3101   C    0.60680   0.30807   0.30807   1.000
    C3102   C    0.69049   0.28000   0.28000   1.000
    C3103   C    0.66272   0.28965   0.28965   1.000
    O3104   O    0.51787   0.33063   0.33063   1.000
    C3105   C    0.76256   0.35723   0.35723   1.000
    C3106   C    0.73822   0.37266   0.37266   1.000
    C3107   C    0.67257   0.41918   0.41918   1.000
    C3108   C    0.69455   0.40303   0.40303   1.000
    C3109   C    0.78725   0.31762   0.31762   1.000
    C3110   C    0.77705   0.30807   0.30807   1.000
    C3111   C    0.74951   0.28000   0.28000   1.000
    C3112   C    0.75798   0.28965   0.28965   1.000
    O3113   O    0.82086   0.33063   0.33063   1.000
    C3114   C    0.35723   0.52298   0.76256   1.000
    C3115   C    0.37266   0.51646   0.73822   1.000
    C3116   C    0.41918   0.48908   0.67257   1.000
    C3117   C    0.40303   0.49938   0.69455   1.000
    C3118   C    0.31762   0.57750   0.78725   1.000
    C3119   C    0.30807   0.60680   0.77705   1.000
    C3120   C    0.28000   0.69049   0.74951   1.000
    C3121   C    0.28965   0.66272   0.75798   1.000
    O3122   O    0.33063   0.51787   0.82086   1.000
    C3123   C    0.35723   0.76256   0.52298   1.000
    C3124   C    0.37266   0.73822   0.51646   1.000
    C3125   C    0.41918   0.67257   0.48908   1.000
    C3126   C    0.40303   0.69455   0.49938   1.000
    C3127   C    0.31762   0.78725   0.57750   1.000
    C3128   C    0.30807   0.77705   0.60680   1.000
    C3129   C    0.28000   0.74951   0.69049   1.000
    C3130   C    0.28965   0.75798   0.66272   1.000
    O3131   O    0.33063   0.82086   0.51787   1.000
    C3132   C    0.35723   0.52298   0.35723   1.000
    C3133   C    0.37266   0.51646   0.37266   1.000
    C3134   C    0.41918   0.48908   0.41918   1.000
    C3135   C    0.40303   0.49938   0.40303   1.000
    C3136   C    0.31762   0.57750   0.31762   1.000
    C3137   C    0.30807   0.60680   0.30807   1.000
    C3138   C    0.28000   0.69049   0.28000   1.000
    C3139   C    0.28965   0.66272   0.28965   1.000
    O3140   O    0.33063   0.51787   0.33063   1.000
    C3141   C    0.35723   0.76256   0.35723   1.000
    C3142   C    0.37266   0.73822   0.37266   1.000
    C3143   C    0.41918   0.67257   0.41918   1.000
    C3144   C    0.40303   0.69455   0.40303   1.000
    C3145   C    0.31762   0.78725   0.31762   1.000
    C3146   C    0.30807   0.77705   0.30807   1.000
    C3147   C    0.28000   0.74951   0.28000   1.000
    C3148   C    0.28965   0.75798   0.28965   1.000
    O3149   O    0.33063   0.82086   0.33063   1.000
    C3150   C    0.76256   0.35723   0.52298   1.000
    C3151   C    0.73822   0.37266   0.51646   1.000
    C3152   C    0.67257   0.41918   0.48908   1.000
    C3153   C    0.69455   0.40303   0.49938   1.000
    C3154   C    0.78725   0.31762   0.57750   1.000
    C3155   C    0.77705   0.30807   0.60680   1.000
    C3156   C    0.74951   0.28000   0.69049   1.000
    C3157   C    0.75798   0.28965   0.66272   1.000
    O3158   O    0.82086   0.33063   0.51787   1.000
    C3159   C    0.52298   0.35723   0.76256   1.000
    C3160   C    0.51646   0.37266   0.73822   1.000
    C3161   C    0.48908   0.41918   0.67257   1.000
    C3162   C    0.49938   0.40303   0.69455   1.000
    C3163   C    0.57750   0.31762   0.78725   1.000
    C3164   C    0.60680   0.30807   0.77705   1.000
    C3165   C    0.69049   0.28000   0.74951   1.000
    C3166   C    0.66272   0.28965   0.75798   1.000
    O3167   O    0.51787   0.33063   0.82086   1.000
    C3168   C    0.89277   0.89277   0.48744   1.000
    C3169   C    0.87734   0.87734   0.51178   1.000
    C3170   C    0.83082   0.83082   0.57743   1.000
    C3171   C    0.84697   0.84697   0.55545   1.000
    C3172   C    0.93238   0.93238   0.46275   1.000
    C3173   C    0.94193   0.94193   0.47295   1.000
    C3174   C    0.97000   0.97000   0.50049   1.000
    C3175   C    0.96035   0.96035   0.49202   1.000
    O3176   O    0.91937   0.91937   0.42914   1.000
    C3177   C    0.89277   0.89277   0.72702   1.000
    C3178   C    0.87734   0.87734   0.73354   1.000
    C3179   C    0.83082   0.83082   0.76092   1.000
    C3180   C    0.84697   0.84697   0.75062   1.000
    C3181   C    0.93238   0.93238   0.67250   1.000
    C3182   C    0.94193   0.94193   0.64320   1.000
    C3183   C    0.97000   0.97000   0.55951   1.000
    C3184   C    0.96035   0.96035   0.58728   1.000
    O3185   O    0.91937   0.91937   0.73213   1.000
    C3186   C    0.72702   0.48744   0.89277   1.000
    C3187   C    0.73354   0.51178   0.87734   1.000
    C3188   C    0.76092   0.57743   0.83082   1.000
    C3189   C    0.75062   0.55545   0.84697   1.000
    C3190   C    0.67250   0.46275   0.93238   1.000
    C3191   C    0.64320   0.47295   0.94193   1.000
    C3192   C    0.55951   0.50049   0.97000   1.000
    C3193   C    0.58728   0.49202   0.96035   1.000
    O3194   O    0.73213   0.42914   0.91937   1.000
    C3195   C    0.48744   0.72702   0.89277   1.000
    C3196   C    0.51178   0.73354   0.87734   1.000
    C3197   C    0.57743   0.76092   0.83082   1.000
    C3198   C    0.55545   0.75062   0.84697   1.000
    C3199   C    0.46275   0.67250   0.93238   1.000
    C3200   C    0.47295   0.64320   0.94193   1.000
    C3201   C    0.50049   0.55951   0.97000   1.000
    C3202   C    0.49202   0.58728   0.96035   1.000
    O3203   O    0.42914   0.73213   0.91937   1.000
    C3204   C    0.72702   0.89277   0.48744   1.000
    C3205   C    0.73354   0.87734   0.51178   1.000
    C3206   C    0.76092   0.83082   0.57743   1.000
    C3207   C    0.75062   0.84697   0.55545   1.000
    C3208   C    0.67250   0.93238   0.46275   1.000
    C3209   C    0.64320   0.94193   0.47295   1.000
    C3210   C    0.55951   0.97000   0.50049   1.000
    C3211   C    0.58728   0.96035   0.49202   1.000
    O3212   O    0.73213   0.91937   0.42914   1.000
    C3213   C    0.48744   0.89277   0.72702   1.000
    C3214   C    0.51178   0.87734   0.73354   1.000
    C3215   C    0.57743   0.83082   0.76092   1.000
    C3216   C    0.55545   0.84697   0.75062   1.000
    C3217   C    0.46275   0.93238   0.67250   1.000
    C3218   C    0.47295   0.94193   0.64320   1.000
    C3219   C    0.50049   0.97000   0.55951   1.000
    C3220   C    0.49202   0.96035   0.58728   1.000
    O3221   O    0.42914   0.91937   0.73213   1.000
    C3222   C    0.89277   0.72702   0.89277   1.000
    C3223   C    0.87734   0.73354   0.87734   1.000
    C3224   C    0.83082   0.76092   0.83082   1.000
    C3225   C    0.84697   0.75062   0.84697   1.000
    C3226   C    0.93238   0.67250   0.93238   1.000
    C3227   C    0.94193   0.64320   0.94193   1.000
    C3228   C    0.97000   0.55951   0.97000   1.000
    C3229   C    0.96035   0.58728   0.96035   1.000
    O3230   O    0.91937   0.73213   0.91937   1.000
    C3231   C    0.89277   0.48744   0.89277   1.000
    C3232   C    0.87734   0.51178   0.87734   1.000
    C3233   C    0.83082   0.57743   0.83082   1.000
    C3234   C    0.84697   0.55545   0.84697   1.000
    C3235   C    0.93238   0.46275   0.93238   1.000
    C3236   C    0.94193   0.47295   0.94193   1.000
    C3237   C    0.97000   0.50049   0.97000   1.000
    C3238   C    0.96035   0.49202   0.96035   1.000
    O3239   O    0.91937   0.42914   0.91937   1.000
    C3240   C    0.89277   0.72702   0.48744   1.000
    C3241   C    0.87734   0.73354   0.51178   1.000
    C3242   C    0.83082   0.76092   0.57743   1.000
    C3243   C    0.84697   0.75062   0.55545   1.000
    C3244   C    0.93238   0.67250   0.46275   1.000
    C3245   C    0.94193   0.64320   0.47295   1.000
    C3246   C    0.97000   0.55951   0.50049   1.000
    C3247   C    0.96035   0.58728   0.49202   1.000
    O3248   O    0.91937   0.73213   0.42914   1.000
    C3249   C    0.89277   0.48744   0.72702   1.000
    C3250   C    0.87734   0.51178   0.73354   1.000
    C3251   C    0.83082   0.57743   0.76092   1.000
    C3252   C    0.84697   0.55545   0.75062   1.000
    C3253   C    0.93238   0.46275   0.67250   1.000
    C3254   C    0.94193   0.47295   0.64320   1.000
    C3255   C    0.97000   0.50049   0.55951   1.000
    C3256   C    0.96035   0.49202   0.58728   1.000
    O3257   O    0.91937   0.42914   0.73213   1.000
    C3258   C    0.48744   0.89277   0.89277   1.000
    C3259   C    0.51178   0.87734   0.87734   1.000
    C3260   C    0.57743   0.83082   0.83082   1.000
    C3261   C    0.55545   0.84697   0.84697   1.000
    C3262   C    0.46275   0.93238   0.93238   1.000
    C3263   C    0.47295   0.94193   0.94193   1.000
    C3264   C    0.50049   0.97000   0.97000   1.000
    C3265   C    0.49202   0.96035   0.96035   1.000
    O3266   O    0.42914   0.91937   0.91937   1.000
    C3267   C    0.72702   0.89277   0.89277   1.000
    C3268   C    0.73354   0.87734   0.87734   1.000
    C3269   C    0.76092   0.83082   0.83082   1.000
    C3270   C    0.75062   0.84697   0.84697   1.000
    C3271   C    0.67250   0.93238   0.93238   1.000
    C3272   C    0.64320   0.94193   0.94193   1.000
    C3273   C    0.55951   0.97000   0.97000   1.000
    C3274   C    0.58728   0.96035   0.96035   1.000
    O3275   O    0.73213   0.91937   0.91937   1.000
    C3276   C    0.44280   0.44280   0.51229   1.000
    C3277   C    0.44188   0.44188   0.53555   1.000
    C3278   C    0.44280   0.44280   0.60211   1.000
    C3279   C    0.44188   0.44188   0.58069   1.000
    C3280   C    0.51229   0.60211   0.44280   1.000
    C3281   C    0.53555   0.58069   0.44188   1.000
    C3282   C    0.60211   0.51229   0.44280   1.000
    C3283   C    0.58069   0.53555   0.44188   1.000
    C3284   C    0.51229   0.44280   0.44280   1.000
    C3285   C    0.53555   0.44188   0.44188   1.000
    C3286   C    0.60211   0.44280   0.44280   1.000
    C3287   C    0.58069   0.44188   0.44188   1.000
    C3288   C    0.44280   0.51229   0.60211   1.000
    C3289   C    0.44188   0.53555   0.58069   1.000
    C3290   C    0.44280   0.60211   0.51229   1.000
    C3291   C    0.44188   0.58069   0.53555   1.000
    C3292   C    0.44280   0.51229   0.44280   1.000
    C3293   C    0.44188   0.53555   0.44188   1.000
    C3294   C    0.44280   0.60211   0.44280   1.000
    C3295   C    0.44188   0.58069   0.44188   1.000
    C3296   C    0.60211   0.44280   0.51229   1.000
    C3297   C    0.58069   0.44188   0.53555   1.000
    C3298   C    0.51229   0.44280   0.60211   1.000
    C3299   C    0.53555   0.44188   0.58069   1.000
    C3300   C    0.80720   0.80720   0.64789   1.000
    C3301   C    0.80812   0.80812   0.66931   1.000
    C3302   C    0.80720   0.80720   0.73771   1.000
    C3303   C    0.80812   0.80812   0.71445   1.000
    C3304   C    0.73771   0.64789   0.80720   1.000
    C3305   C    0.71445   0.66931   0.80812   1.000
    C3306   C    0.64789   0.73771   0.80720   1.000
    C3307   C    0.66931   0.71445   0.80812   1.000
    C3308   C    0.73771   0.80720   0.64789   1.000
    C3309   C    0.71445   0.80812   0.66931   1.000
    C3310   C    0.64789   0.80720   0.73771   1.000
    C3311   C    0.66931   0.80812   0.71445   1.000
    C3312   C    0.80720   0.73771   0.80720   1.000
    C3313   C    0.80812   0.71445   0.80812   1.000
    C3314   C    0.80720   0.64789   0.80720   1.000
    C3315   C    0.80812   0.66931   0.80812   1.000
    C3316   C    0.80720   0.73771   0.64789   1.000
    C3317   C    0.80812   0.71445   0.66931   1.000
    C3318   C    0.80720   0.64789   0.73771   1.000
    C3319   C    0.80812   0.66931   0.71445   1.000
    C3320   C    0.64789   0.80720   0.80720   1.000
    C3321   C    0.66931   0.80812   0.80812   1.000
    C3322   C    0.73771   0.80720   0.80720   1.000
    C3323   C    0.71445   0.80812   0.80812   1.000
    O3324   O    0.45414   0.45414   0.45414   1.000
    O3325   O    0.45414   0.45414   0.63759   1.000
    O3326   O    0.45414   0.63759   0.45414   1.000
    O3327   O    0.63759   0.45414   0.45414   1.000
    O3328   O    0.79586   0.79586   0.61241   1.000
    O3329   O    0.79586   0.79586   0.79586   1.000
    O3330   O    0.79586   0.61241   0.79586   1.000
    O3331   O    0.61241   0.79586   0.79586   1.000
loop_
    _geom_bond_atom_site_label_1
    _geom_bond_atom_site_label_2
    _geom_bond_distance
    _geom_bond_site_symmetry_2
    _ccdc_geom_bond_type
    O1795  C1772     1.27469  1_554   S
    O2141  C2118     1.27469  1_554   S
    O1480  C1457     1.27469  1_554   S
    O1858  C1835     1.27469  1_554   S
    O960   C937      1.27469  1_554   S
    O1228  C1205     1.27469  1_554   S
    C1843  C1841     1.41016      .   S
    C1843  C1847     1.40076      .   S
    C1843  C1842     1.47969  1_554   S
    C1780  C1778     1.41016      .   S
    C1780  C1784     1.40111      .   S
    C1780  C1779     1.47969  1_554   S
    C945   C943      1.41016      .   S
    C945   C949      1.40111      .   S
    C945   C944      1.47969  1_554   S
    C1213  C1211     1.41016      .   S
    C1213  C1217     1.40076      .   S
    C1213  C1212     1.47969  1_554   S
    C2126  C2124     1.41016      .   S
    C2126  C2130     1.40113      .   S
    C2126  C2125     1.47969  1_554   S
    C1465  C1463     1.41016      .   S
    C1465  C1469     1.40113      .   S
    C1465  C1464     1.47969  1_554   S
    H2157  C2117     1.08341  1_554   S
    H1496  C1456     1.08341  1_554   S
    H1874  C1834     1.08292  1_554   S
    H976   C936      1.08299  1_554   S
    H1244  C1204     1.08292  1_554   S
    H1811  C1771     1.08299  1_554   S
    C943   C946      1.40238      .   S
    C943   H981      1.08281  1_554   S
    C2124  C2127     1.40238      .   S
    C2124  H2162     1.08279  1_554   S
    C1778  C1781     1.40238      .   S
    C1778  H1816     1.08281  1_554   S
    C1211  C1214     1.40238      .   S
    C1211  H1249     1.08317  1_554   S
    C1841  C1844     1.40238      .   S
    C1841  H1879     1.08317  1_554   S
    C1463  C1466     1.40238      .   S
    C1463  H1501     1.08279  1_554   S
    H2155  C2113     1.08252      .   S
    H1494  C1452     1.08252      .   S
    H974   C932      1.08252      .   S
    H1872  C1830     1.08252      .   S
    H1809  C1767     1.08252      .   S
    H1242  C1200     1.08252      .   S
    H1503  C1469     1.08312      .   S
    H1881  C1847     1.08353      .   S
    H1251  C1217     1.08353      .   S
    H1818  C1784     1.08292      .   S
    H983   C949      1.08292      .   S
    H2164  C2130     1.08312      .   S
    C1829  C1830     1.41158      .   S
    C1829  C1827     1.41084      .   S
    C1829  C1828     1.51096  1_554   S
    C1451  C1452     1.41113      .   S
    C1451  C1449     1.41127      .   S
    C1451  C1450     1.51099  1_554   S
    C1199  C1200     1.41158      .   S
    C1199  C1197     1.41084      .   S
    C1199  C1198     1.51096  1_554   S
    C2112  C2113     1.41113      .   S
    C2112  C2110     1.41127      .   S
    C2112  C2111     1.51099  1_554   S
    C931   C932      1.41173      .   S
    C931   C929      1.41100      .   S
    C931   C930      1.51070  1_554   S
    C1766  C1767     1.41173      .   S
    C1766  C1764     1.41100      .   S
    C1766  C1765     1.51070  1_554   S
    C2130  C2131     1.39027      .   S
    C1469  C1470     1.39027      .   S
    C949   C950      1.39027      .   S
    C1847  C1848     1.39027      .   S
    C1217  C1218     1.39027      .   S
    C1784  C1785     1.39027      .   S
    C1452  C1893     1.41076      .   S
    C1830  C1515     1.41076      .   S
    C932   C1704     1.41076      .   S
    C2113  C1263     1.41076      .   S
    C1767  C995      1.41076      .   S
    C1200  C2050     1.41076      .   S
    C1844  H1880     1.08273      .   S
    C1844  C1846     1.40426      .   S
    C1781  H1817     1.08334      .   S
    C1781  C1783     1.40426      .   S
    C2127  H2163     1.08313      .   S
    C2127  C2129     1.40426      .   S
    C1466  H1502     1.08313      .   S
    C1466  C1468     1.40426      .   S
    C1214  H1250     1.08273      .   S
    C1214  C1216     1.40426      .   S
    C946   H982      1.08334      .   S
    C946   C948      1.40426      .   S
    O1024  C1000     1.27285      .   S
    O2079  C2055     1.27227      .   S
    O1733  C1709     1.27285      .   S
    O1922  C1898     1.27252      .   S
    O1544  C1520     1.27227      .   S
    O1292  C1268     1.27252      .   S
    H1808  C1764     1.08272      .   S
    H973   C929      1.08272      .   S
    H1241  C1197     1.08286      .   S
    H2154  C2110     1.08332      .   S
    H1493  C1449     1.08332      .   S
    H1871  C1827     1.08286      .   S
    C1449  C1890     1.40950      .   S
    C929   C1701     1.40950      .   S
    C1197  C2047     1.40950      .   S
    C2110  C1260     1.40950      .   S
    C1764  C992      1.40950      .   S
    C1827  C1512     1.40950      .   S
    O1732  C1709     1.27469      .   S
    O1543  C1520     1.27469  1_545   S
    O1291  C1268     1.27469  1_455   S
    O1023  C1000     1.27469      .   S
    O2078  C2055     1.27469  1_455   S
    O1921  C1898     1.27469  1_545   S
    C1000  C1001     1.50834      .   S
    C1709  C1710     1.50834      .   S
    C1898  C1899     1.50834      .   S
    C1268  C1269     1.50834      .   S
    C2055  C2056     1.50834      .   S
    C1520  C1521     1.50834      .   S
    C950   C948      1.40878      .   S
    C950   H984      1.08289      .   S
    C1470  C1468     1.40857      .   S
    C1470  H1504     1.08287      .   S
    C1218  C1216     1.40817      .   S
    C1218  H1252     1.08327      .   S
    C1785  C1783     1.40878      .   S
    C1785  H1819     1.08289      .   S
    C1848  C1846     1.40817      .   S
    C1848  H1882     1.08327      .   S
    C2131  C2129     1.40857      .   S
    C2131  H2165     1.08287      .   S
    C1893  H1935     1.08252      .   S
    C1893  C1892     1.41113      .   S
    C1263  H1305     1.08252      .   S
    C1263  C1262     1.41113      .   S
    C995   H521      1.08252      .   S
    C995   C994      1.41140      .   S
    C2050  H2092     1.08252      .   S
    C2050  C2049     1.41158      .   S
    C1704  H1746     1.08252      .   S
    C1704  C1703     1.41140      .   S
    C1515  H1557     1.08252      .   S
    C1515  C1514     1.41158      .   S
    C1468  C2758     1.48126      .   S
    C1783  C557      1.48153      .   S
    C948   C3010     1.48153      .   S
    C2129  C354      1.48126      .   S
    C1846  C158      1.48129      .   S
    C1216  C2506     1.48129      .   S
    H2096  C2058     1.08289      .   S
    H1750  C1712     1.08230      .   S
    H1309  C1271     1.08263      .   S
    H1939  C1901     1.08263      .   S
    H525   C1003     1.08230      .   S
    H1561  C1523     1.08289      .   S
    C1001  C1003     1.41009      .   S
    C1001  C999      1.41161      .   S
    C1899  C1901     1.41009      .   S
    C1899  C1897     1.41131      .   S
    C1269  C1271     1.41009      .   S
    C1269  C1267     1.41131      .   S
    C1521  C1523     1.41009      .   S
    C1521  C1519     1.41102      .   S
    C2056  C2058     1.41009      .   S
    C2056  C2054     1.41102      .   S
    C1710  C1712     1.41009      .   S
    C1710  C1708     1.41161      .   S
    C1701  C1703     1.41067      .   S
    C1701  H1745     1.08302      .   S
    C1890  C1892     1.41127      .   S
    C1890  H1934     1.08332      .   S
    C1512  C1514     1.41084      .   S
    C1512  H1556     1.08286      .   S
    C2047  C2049     1.41084      .   S
    C2047  H2091     1.08286      .   S
    C992   C994      1.41067      .   S
    C992   H520      1.08302      .   S
    C1260  C1262     1.41127      .   S
    C1260  H1304     1.08332      .   S
    C1271  C1270     1.40647      .   S
    C1003  C1002     1.40647      .   S
    C1901  C1900     1.40647      .   S
    C1712  C1711     1.40647      .   S
    C2058  C2057     1.40647      .   S
    C1523  C1522     1.40647      .   S
    C2049  C2048     1.51096  1_455   S
    C1703  C1702     1.51132      .   S
    C1262  C1261     1.51099  1_455   S
    C1514  C1513     1.51096  1_545   S
    C994   C993      1.51132      .   S
    C1892  C1891     1.51099  1_545   S
    H2094  C2054     1.08292  1_455   S
    H523   C999      1.08218      .   S
    H1307  C1267     1.08341  1_455   S
    H1559  C1519     1.08292  1_545   S
    H1748  C1708     1.08218      .   S
    H1937  C1897     1.08341  1_545   S
    C999   C996      1.41201      .   S
    C1897  C1894     1.41201      .   S
    C1519  C1516     1.41201      .   S
    C1267  C1264     1.41201      .   S
    C1708  C1705     1.41201      .   S
    C2054  C2051     1.41201      .   S
    C158   O177      1.27271      .   S
    C158   O1550     1.26278      .   S
    C3010  O3029     1.27213      .   S
    C3010  O1739     1.26278      .   S
    C2506  O2525     1.27271      .   S
    C2506  O2085     1.26278      .   S
    C354   O373      1.27227      .   S
    C354   O1298     1.26278      .   S
    C557   O576      1.27213      .   S
    C557   O1030     1.26278      .   S
    C2758  O2777     1.27227      .   S
    C2758  O1928     1.26278      .   S
    C1270  H1308     1.08286      .   S
    C1270  C1266     1.41033      .   S
    C1900  H1938     1.08286      .   S
    C1900  C1896     1.41033      .   S
    C1711  H1749     1.08224      .   S
    C1711  C1707     1.41033      .   S
    C2057  H2095     1.08261      .   S
    C2057  C2053     1.41033      .   S
    C1002  H524      1.08224      .   S
    C1002  C998      1.41033      .   S
    C1522  H1560     1.08261      .   S
    C1522  C1518     1.41033      .   S
    C996   C998      1.41150      .   S
    C996   H522      1.08234      .   S
    C1264  C1266     1.41088      .   S
    C1264  H1306     1.08234      .   S
    C1705  C1707     1.41150      .   S
    C1705  H1747     1.08234      .   S
    C2051  C2053     1.41116      .   S
    C2051  H2093     1.08234      .   S
    C1894  C1896     1.41088      .   S
    C1894  H1936     1.08234      .   S
    C1516  C1518     1.41116      .   S
    C1516  H1558     1.08234      .   S
    C1891  O2768     1.27552      .   S
    C1891  O1917     1.27399      .   S
    C993   O567      1.27492      .   S
    C993   O1019     1.27399      .   S
    C1513  O168      1.27509      .   S
    C1513  O1539     1.27399      .   S
    C1261  O364      1.27552      .   S
    C1261  O1287     1.27399      .   S
    C1702  O3020     1.27492      .   S
    C1702  O1728     1.27399      .   S
    C2048  O2516     1.27509      .   S
    C2048  O2074     1.27399      .   S
    C998   C997      1.50873      .   S
    C1266  C1265     1.50873      .   S
    C1896  C1895     1.50873      .   S
    C1707  C1706     1.50873      .   S
    C1518  C1517     1.50873      .   S
    C2053  C2052     1.50873      .   S
    C1895  O1920     1.27302      .   S
    C1895  O1919     1.27495      .   S
    C1517  O1542     1.27276      .   S
    C1517  O1541     1.27495      .   S
    C1706  O1731     1.27239      .   S
    C1706  O1730     1.27495      .   S
    C1265  O1290     1.27302      .   S
    C1265  O1289     1.27495      .   S
    C997   O1022     1.27239      .   S
    C997   O1021     1.27495      .   S
    C2052  O2077     1.27276      .   S
    C2052  O2076     1.27495      .   S
    O169   C145      1.27495      .   S
    O3021  C2997     1.27495      .   S
    O2769  C2745     1.27495      .   S
    O365   C341      1.27495      .   S
    O568   C544      1.27495      .   S
    O2517  C2493     1.27495      .   S
    O170   C145      1.27239      .   S
    O3022  C2997     1.27276      .   S
    O366   C341      1.27302      .   S
    O569   C544      1.27276      .   S
    O2518  C2493     1.27239      .   S
    O2770  C2745     1.27302      .   S
    O2767  C2741     1.27399      .   S
    O167   C141      1.27399      .   S
    O566   C540      1.27399      .   S
    O2515  C2489     1.27399      .   S
    O363   C337      1.27399      .   S
    O3019  C2993     1.27399      .   S
    C341   C342      1.50873      .   S
    C544   C545      1.50873      .   S
    C145   C146      1.50873      .   S
    C2493  C2494     1.50873      .   S
    C2745  C2746     1.50873      .   S
    C2997  C2998     1.50873      .   S
    H585   C543      1.08234      .   S
    H2534  C2492     1.08234      .   S
    H382   C340      1.08234      .   S
    H186   C144      1.08234      .   S
    H3038  C2996     1.08234      .   S
    H2786  C2744     1.08234      .   S
    O1918  C2741     1.27552      .   S
    O1729  C2993     1.27509      .   S
    O2075  C2489     1.27492      .   S
    O1288  C337      1.27552      .   S
    O1540  C141      1.27492      .   S
    O1020  C540      1.27509      .   S
    O2526  C2065     1.26278      .   S
    O577   C1010     1.26278      .   S
    O2778  C1908     1.26278      .   S
    O374   C1278     1.26278      .   S
    O178   C1530     1.26278      .   S
    O3030  C1719     1.26278      .   S
    C545   C543      1.41116      .   S
    C545   C549      1.41033      .   S
    C2746  C2744     1.41088      .   S
    C2746  C2750     1.41033      .   S
    C2494  C2492     1.41150      .   S
    C2494  C2498     1.41033      .   S
    C342   C340      1.41088      .   S
    C342   C346      1.41033      .   S
    C2998  C2996     1.41116      .   S
    C2998  C3002     1.41033      .   S
    C146   C144      1.41150      .   S
    C146   C150      1.41033      .   S
    C337   C338      1.51099      .   S
    C2993  C2994     1.51096      .   S
    C540   C541      1.51096      .   S
    C2741  C2742     1.51099      .   S
    C2489  C2490     1.51132      .   S
    C141   C142      1.51132      .   S
    C543   C546      1.41201      .   S
    C2492  C2495     1.41201      .   S
    C340   C343      1.41201      .   S
    C144   C147      1.41201      .   S
    C2996  C2999     1.41201      .   S
    C2744  C2747     1.41201      .   S
    H188   C150      1.08224      .   S
    H587   C549      1.08261      .   S
    H2788  C2750     1.08286      .   S
    H2536  C2498     1.08224      .   S
    H384   C346      1.08286      .   S
    H3040  C3002     1.08261      .   S
    O2084  C2065     1.27213      .   S
    O1297  C1278     1.27227      .   S
    O1549  C1530     1.27213      .   S
    O1738  C1719     1.27271      .   S
    O1029  C1010     1.27271      .   S
    O1927  C1908     1.27227      .   S
    C3002  C3003     1.40647      .   S
    C150   C151      1.40647      .   S
    C549   C550      1.40647      .   S
    C2498  C2499     1.40647      .   S
    C2750  C2751     1.40647      .   S
    C346   C347      1.40647      .   S
    H184   C140      1.08302      .   S
    H2532  C2488     1.08302      .   S
    H583   C539      1.08286      .   S
    H380   C336      1.08332      .   S
    H2784  C2740     1.08332      .   S
    H3036  C2992     1.08286      .   S
    C1908  C621      1.48126      .   S
    C1278  C2948     1.48126      .   S
    C1530  C2444     1.48153      .   S
    C2065  C225      1.48153      .   S
    C1719  C292      1.48129      .   S
    C1010  C2696     1.48129      .   S
    C546   H586      1.08292      .   S
    C546   C548      1.41102      .   S
    C2999  H3039     1.08292      .   S
    C2999  C3001     1.41102      .   S
    C147   H187      1.08218      .   S
    C147   C149      1.41161      .   S
    C2747  H2787     1.08341      .   S
    C2747  C2749     1.41131      .   S
    C2495  H2535     1.08218      .   S
    C2495  C2497     1.41161      .   S
    C343   H383      1.08341      .   S
    C343   C345      1.41131      .   S
    C2490  C2488     1.41067      .   S
    C2490  C2491     1.41140      .   S
    C142   C140      1.41067      .   S
    C142   C143      1.41140      .   S
    C2742  C2740     1.41127      .   S
    C2742  C2743     1.41113      .   S
    C541   C539      1.41084      .   S
    C541   C542      1.41158      .   S
    C338   C336      1.41127      .   S
    C338   C339      1.41113      .   S
    C2994  C2992     1.41084      .   S
    C2994  C2995     1.41158      .   S
    C2751  C2749     1.41009      .   S
    C2751  H2789     1.08263      .   S
    C3003  C3001     1.41009      .   S
    C3003  H3041     1.08289      .   S
    C2499  C2497     1.41009      .   S
    C2499  H2537     1.08230      .   S
    C347   C345      1.41009      .   S
    C347   H385      1.08263      .   S
    C550   C548      1.41009      .   S
    C550   H588      1.08289      .   S
    C151   C149      1.41009      .   S
    C151   H189      1.08230      .   S
    C539   C2677     1.40950      .   S
    C2740  C602      1.40950      .   S
    C140   C2425     1.40950      .   S
    C2488  C206      1.40950      .   S
    C336   C2929     1.40950      .   S
    C2992  C273      1.40950      .   S
    C3001  C3000     1.50834      .   S
    C2497  C2496     1.50834      .   S
    C2749  C2748     1.50834      .   S
    C345   C344      1.50834      .   S
    C548   C547      1.50834      .   S
    C149   C148      1.50834      .   S
    H2480  C2446     1.08289      .   S
    H130   C227      1.08289      .   S
    H657   C623      1.08287      .   S
    H328   C294      1.08327      .   S
    H2732  C2698     1.08327      .   S
    H2984  C2950     1.08287      .   S
    C2696  C2698     1.40817      .   S
    C2696  C2694     1.40426      .   S
    C2948  C2950     1.40857      .   S
    C2948  C2946     1.40426      .   S
    C292   C294      1.40817      .   S
    C292   C290      1.40426      .   S
    C225   C227      1.40878      .   S
    C225   C223      1.40426      .   S
    C621   C623      1.40857      .   S
    C621   C619      1.40426      .   S
    C2444  C2446     1.40878      .   S
    C2444  C2442     1.40426      .   S
    H381   C339      1.08252      .   S
    H185   C143      1.08252      .   S
    H2533  C2491     1.08252      .   S
    H584   C542      1.08252      .   S
    H2785  C2743     1.08252      .   S
    H3037  C2995     1.08252      .   S
    C143   C2428     1.41076      .   S
    C339   C2932     1.41076      .   S
    C2995  C276      1.41076      .   S
    C2491  C209      1.41076      .   S
    C542   C2680     1.41076      .   S
    C2743  C605      1.41076      .   S
    C2950  C2949     1.39027      .   S
    C623   C622      1.39027      .   S
    C2698  C2697     1.39027      .   S
    C2446  C2445     1.39027      .   S
    C227   C226      1.39027      .   S
    C294   C293      1.39027      .   S
    C344   O367      1.27469      .   S
    C344   O368      1.27252      .   S
    C148   O171      1.27469      .   S
    C148   O172      1.27285      .   S
    C3000  O3023     1.27469      .   S
    C3000  O3024     1.27227      .   S
    C547   O570      1.27469      .   S
    C547   O571      1.27227      .   S
    C2748  O2771     1.27469      .   S
    C2748  O2772     1.27252      .   S
    C2496  O2519     1.27469      .   S
    C2496  O2520     1.27285      .   S
    C2425  H2469     1.08272      .   S
    C2425  C2427     1.41100      .   S
    C206   H250      1.08272      .   S
    C206   C208      1.41100      .   S
    C273   H317      1.08286      .   S
    C273   C275      1.41084      .   S
    C2929  H2973     1.08332      .   S
    C2929  C2931     1.41127      .   S
    C602   H646      1.08332      .   S
    C602   C604      1.41127      .   S
    C2677  H2721     1.08286      .   S
    C2677  C2679     1.41084      .   S
    H2730  C2694     1.08273      .   S
    H326   C290      1.08273      .   S
    H128   C223      1.08334      .   S
    H2478  C2442     1.08334      .   S
    H655   C619      1.08313      .   S
    H2982  C2946     1.08313      .   S
    C619   C616      1.40238      .   S
    C223   C220      1.40238      .   S
    C2442  C2439     1.40238      .   S
    C2946  C2943     1.40238      .   S
    C2694  C2691     1.40238      .   S
    C290   C287      1.40238      .   S
    C2932  C2931     1.41113      .   S
    C2932  H2974     1.08252      .   S
    C605   C604      1.41113      .   S
    C605   H647      1.08252      .   S
    C2428  C2427     1.41173      .   S
    C2428  H2470     1.08252      .   S
    C276   C275      1.41158      .   S
    C276   H318      1.08252      .   S
    C209   C208      1.41173      .   S
    C209   H251      1.08252      .   S
    C2680  C2679     1.41158      .   S
    C2680  H2722     1.08252      .   S
    C293   H327      1.08353      .   S
    C293   C289      1.40076      .   S
    C2697  H2731     1.08353      .   S
    C2697  C2693     1.40076      .   S
    C2949  H2983     1.08312      .   S
    C2949  C2945     1.40113      .   S
    C622   H656      1.08312      .   S
    C622   C618      1.40113      .   S
    C2445  H2479     1.08292      .   S
    C2445  C2441     1.40111      .   S
    C226   H129      1.08292      .   S
    C226   C222      1.40111      .   S
    C208   C207      1.51070      .   S
    C2427  C2426     1.51070      .   S
    C2931  C2930     1.51099      .   S
    C2679  C2678     1.51096      .   S
    C275   C274      1.51096      .   S
    C604   C603      1.51099      .   S
    C2943  C2945     1.41016      .   S
    C2943  H2981     1.08279      .   S
    C220   C222      1.41016      .   S
    C220   H127      1.08281      .   S
    C287   C289      1.41016      .   S
    C287   H325      1.08317      .   S
    C2439  C2441     1.41016      .   S
    C2439  H2477     1.08281      .   S
    C616   C618      1.41016      .   S
    C616   H654      1.08279      .   S
    C2691  C2693     1.41016      .   S
    C2691  H2729     1.08317      .   S
    H2724  C2684     1.08292      .   S
    H649   C609      1.08341      .   S
    H253   C213      1.08299      .   S
    H2472  C2432     1.08299      .   S
    H2976  C2936     1.08341      .   S
    H320   C280      1.08292      .   S
    C2441  C2440     1.47969      .   S
    C2945  C2944     1.47969      .   S
    C222   C221      1.47969      .   S
    C289   C288      1.47969      .   S
    C618   C617      1.47969      .   S
    C2693  C2692     1.47969      .   S
    O237   C214      1.27469      .   S
    O2456  C2433     1.27469      .   S
    O2960  C2937     1.27469      .   S
    O304   C281      1.27469      .   S
    O633   C610      1.27469      .   S
    O2708  C2685     1.27469      .   S
    C2678  O2704     1.27399      .   S
    C2678  O1981     1.27509      .   S
    C274   O300      1.27399      .   S
    C274   O1099     1.27509      .   S
    C2930  O2956     1.27399      .   S
    C2930  O1666     1.27552      .   S
    C207   O233      1.27399      .   S
    C207   O1351     1.27522      .   S
    C2426  O2452     1.27399      .   S
    C2426  O2264     1.27522      .   S
    C603   O629      1.27399      .   S
    C603   O831      1.27552      .   S
    H2723  C2681     1.08234      .   S
    H319   C277      1.08234      .   S
    H2471  C2429     1.08234      .   S
    H2975  C2933     1.08234      .   S
    H252   C210      1.08234      .   S
    H648   C606      1.08234      .   S
    H3043  C3005     1.08308      .   S
    H387   C349      1.08308      .   S
    H2791  C2753     1.08308      .   S
    H191   C153      1.08308      .   S
    H590   C552      1.08308      .   S
    H2539  C2501     1.08308      .   S
    O2774  C3147     1.27301      .   S
    O174   C3084     1.27301      .   S
    O2522  C3093     1.27301      .   S
    O3026  C3102     1.27301      .   S
    O370   C3111     1.27301      .   S
    O573   C3138     1.27301      .   S
    C2684  C2681     1.41201      .   S
    C2684  C2686     1.41102      .   S
    C2432  C2429     1.41201      .   S
    C2432  C2434     1.41150      .   S
    C2936  C2933     1.41201      .   S
    C2936  C2938     1.41131      .   S
    C609   C606      1.41201      .   S
    C609   C611      1.41131      .   S
    C213   C210      1.41201      .   S
    C213   C215      1.41150      .   S
    C280   C277      1.41201      .   S
    C280   C282      1.41102      .   S
    C2681  C2683     1.41116      .   S
    C2933  C2935     1.41088      .   S
    C2429  C2431     1.41110      .   S
    C277   C279      1.41116      .   S
    C210   C212      1.41110      .   S
    C606   C608      1.41088      .   S
    H1683  C1641     1.08252      .   S
    H2281  C2239     1.08252      .   S
    H1116  C1074     1.08252      .   S
    H1998  C1956     1.08252      .   S
    H1368  C1326     1.08252      .   S
    H848   C794      1.08252      .   S
    C2433  C2434     1.50834      .   S
    C2433  O2457     1.27273      .   S
    C2937  C2938     1.50834      .   S
    C2937  O2961     1.27252      .   S
    C2685  C2686     1.50834      .   S
    C2685  O2709     1.27227      .   S
    C281   C282      1.50834      .   S
    C281   O305      1.27227      .   S
    C610   C611      1.50834      .   S
    C610   O634      1.27252      .   S
    C214   C215      1.50834      .   S
    C214   O238      1.27273      .   S
    H2538  C2500     1.08260      .   S
    H386   C348      1.08260      .   S
    H2790  C2752     1.08260      .   S
    H589   C551      1.08260      .   S
    H190   C152      1.08260      .   S
    H3042  C3004     1.08260      .   S
    C2944  O372      1.27044      .   S
    C2944  O2964     1.26682      .   S
    C288   O3028     1.26993      .   S
    C288   O308      1.26639      .   S
    C617   O2776     1.27044      .   S
    C617   O637      1.26682      .   S
    C221   O2524     1.27049      .   S
    C221   O241      1.26672      .   S
    C2440  O176      1.27049      .   S
    C2440  O2460     1.26672      .   S
    C2692  O575      1.26993      .   S
    C2692  O2712     1.26639      .   S
    C3005  C3004     1.40693      .   S
    C3005  C3103     1.41318      .   S
    C349   C348      1.40693      .   S
    C349   C3112     1.41318      .   S
    C2753  C2752     1.40693      .   S
    C2753  C3148     1.41318      .   S
    C552   C551      1.40693      .   S
    C552   C3139     1.41318      .   S
    C153   C152      1.40693      .   S
    C153   C3085     1.41318      .   S
    C2501  C2500     1.40693      .   S
    C2501  C3094     1.41318      .   S
    C1641  C794      1.41076      .   S
    C1641  C1640     1.41113      .   S
    C794   C793      1.41113      .   S
    C1074  C2239     1.41076      .   S
    C1074  C1073     1.41140      .   S
    C1956  C1326     1.41076      .   S
    C1956  C1955     1.41140      .   S
    C1326  C1325     1.41173      .   S
    C2239  C2238     1.41173      .   S
    C2686  C2688     1.41009      .   S
    C282   C284      1.41009      .   S
    C2938  C2940     1.41009      .   S
    C215   C217      1.41009      .   S
    C611   C613      1.41009      .   S
    C2434  C2436     1.41009      .   S
    C3102  C3103     1.42548      .   S
    C3102  O307      1.27301      .   S
    C3138  C3139     1.42548      .   S
    C3138  O2711     1.27301      .   S
    C3111  C3112     1.42548      .   S
    C3111  O2963     1.27301      .   S
    C3147  C3148     1.42548      .   S
    C3147  O636      1.27301      .   S
    C3084  C3085     1.42548      .   S
    C3084  O2459     1.27301      .   S
    C3093  C3094     1.42548      .   S
    C3093  O240      1.27301      .   S
    O2453  C2237     1.27522      .   S
    O301   C1072     1.27492      .   S
    O630   C792      1.27552      .   S
    O234   C1324     1.27522      .   S
    O2705  C1954     1.27492      .   S
    O2957  C1639     1.27552      .   S
    O302   C278      1.27495      .   S
    O235   C211      1.27495      .   S
    O631   C607      1.27495      .   S
    O2454  C2430     1.27495      .   S
    O2958  C2934     1.27495      .   S
    O2706  C2682     1.27495      .   S
    C3004  C3101     1.40896      .   S
    C2500  C3092     1.40868      .   S
    C152   C3083     1.40868      .   S
    C551   C3137     1.40896      .   S
    C2752  C3146     1.40869      .   S
    C348   C3110     1.40869      .   S
    C2238  C2237     1.51070  1_545   S
    C2238  C2236     1.41100      .   S
    C1955  C1954     1.51132      .   S
    C1955  C1953     1.41067      .   S
    C1640  C1639     1.51099  1_455   S
    C1640  C1638     1.41127      .   S
    C793   C792      1.51099  1_545   S
    C793   C791      1.41127      .   S
    C1073  C1072     1.51132      .   S
    C1073  C1071     1.41067      .   S
    C1325  C1324     1.51070  1_455   S
    C1325  C1323     1.41100      .   S
    C2237  O2263     1.27399      .   S
    C1639  O1665     1.27399      .   S
    C792   O830      1.27399      .   S
    C1072  O1098     1.27399      .   S
    C1954  O1980     1.27399      .   S
    C1324  O1350     1.27399      .   S
    C3103  C286      1.41318      .   S
    C3139  C2690     1.41318      .   S
    C3094  C219      1.41318      .   S
    C3085  C2438     1.41318      .   S
    C3112  C2942     1.41318      .   S
    C3148  C615      1.41318      .   S
    C2683  C2682     1.50873      .   S
    C2683  C2687     1.41033      .   S
    C212   C211      1.50873      .   S
    C212   C216      1.41033      .   S
    C608   C607      1.50873      .   S
    C608   C612      1.41033      .   S
    C2935  C2934     1.50873      .   S
    C2935  C2939     1.41033      .   S
    C2431  C2430     1.50873      .   S
    C2431  C2435     1.41033      .   S
    C279   C278      1.50873      .   S
    C279   C283      1.41033      .   S
    C1953  C1323     1.40950      .   S
    C1953  H1997     1.08302      .   S
    C2236  C1071     1.40950      .   S
    C2236  H2280     1.08272      .   S
    C1323  H1367     1.08272      .   S
    C1071  H1115     1.08302      .   S
    C791   C1638     1.40950      .   S
    C791   H847      1.08332      .   S
    C1638  H1682     1.08332      .   S
    C211   O236      1.27276      .   S
    C2430  O2455     1.27276      .   S
    C607   O632      1.27302      .   S
    C2682  O2707     1.27276      .   S
    C278   O303      1.27276      .   S
    C2934  O2959     1.27302      .   S
    H2531  C2487     1.08261      .   S
    H379   C335      1.08261      .   S
    H582   C538      1.08261      .   S
    H2783  C2739     1.08261      .   S
    H3035  C2991     1.08261      .   S
    H183   C139      1.08261      .   S
    C2688  C2687     1.40647      .   S
    C2688  H2726     1.08289      .   S
    C2940  C2939     1.40647      .   S
    C2940  H2978     1.08263      .   S
    C613   C612      1.40647      .   S
    C613   H651      1.08263      .   S
    C2436  C2435     1.40647      .   S
    C2436  H2474     1.08243      .   S
    C284   C283      1.40647      .   S
    C284   H322      1.08289      .   S
    C217   C216      1.40647      .   S
    C217   H255      1.08243      .   S
    O2521  C3091     1.27123      .   S
    O369   C3109     1.27227      .   S
    O2773  C3145     1.27227      .   S
    O3025  C3100     1.27177      .   S
    O173   C3082     1.27123      .   S
    O572   C3136     1.27177      .   S
    C139   C2739     1.40510      .   S
    C139   C138      1.40882      .   S
    C538   C2991     1.40510      .   S
    C538   C537      1.40821      .   S
    C2487  C335      1.40510      .   S
    C2487  C2486     1.40882      .   S
    C2991  C2990     1.40821      .   S
    C2739  C2738     1.40850      .   S
    C335   C334      1.40850      .   S
    H193   C157      1.08314      .   S
    H2541  C2505     1.08314      .   S
    H3045  C3009     1.08273      .   S
    H2793  C2757     1.08313      .   S
    H592   C556      1.08273      .   S
    H389   C353      1.08313      .   S
    O2513  C2485     1.27072      .   S
    O361   C333      1.27040      .   S
    O2765  C2737     1.27040      .   S
    O165   C137      1.27072      .   S
    O3017  C2989     1.27101      .   S
    O564   C536      1.27101      .   S
    C3110  C3109     1.50353      .   S
    C3110  C2941     1.40869      .   S
    C3137  C3136     1.50353      .   S
    C3137  C2689     1.40896      .   S
    C3101  C3100     1.50353      .   S
    C3101  C285      1.40896      .   S
    C3092  C3091     1.50353      .   S
    C3092  C218      1.40922      .   S
    C3083  C3082     1.50353      .   S
    C3083  C2437     1.40922      .   S
    C3146  C3145     1.50353      .   S
    C3146  C614      1.40869      .   S
    O2714  C2695     1.27213      .   S
    O243   C224      1.27224      .   S
    O2462  C2443     1.27224      .   S
    O639   C620      1.27227      .   S
    O310   C291      1.27213      .   S
    O2966  C2947     1.27227      .   S
    C216   H254      1.08264      .   S
    C612   H650      1.08286      .   S
    C283   H321      1.08261      .   S
    C2435  H2473     1.08264      .   S
    C2939  H2977     1.08286      .   S
    C2687  H2725     1.08261      .   S
    H3044  C3006     1.08317      .   S
    H388   C350      1.08279      .   S
    H2540  C2502     1.08330      .   S
    H2792  C2754     1.08279      .   S
    H591   C553      1.08317      .   S
    H192   C154      1.08330      .   S
    C334   C333      1.49256      .   S
    C334   C332      1.40665      .   S
    C2486  C2485     1.49130      .   S
    C2486  C2484     1.40697      .   S
    C537   C536      1.49193      .   S
    C537   C535      1.40726      .   S
    C2990  C2989     1.49193      .   S
    C2990  C2988     1.40726      .   S
    C138   C137      1.49130      .   S
    C138   C136      1.40697      .   S
    C2738  C2737     1.49256      .   S
    C2738  C2736     1.40665      .   S
    C2485  O232      1.26837      .   S
    C333   O2955     1.26808      .   S
    C2737  O628      1.26808      .   S
    C137   O2451     1.26837      .   S
    C536   O2703     1.26777      .   S
    C2989  O299      1.26777      .   S
    C286   C285      1.40693      .   S
    C286   H324      1.08308      .   S
    C615   C614      1.40693      .   S
    C615   H653      1.08308      .   S
    C2438  C2437     1.40693      .   S
    C2438  H2476     1.08308      .   S
    C219   C218      1.40693      .   S
    C219   H257      1.08308      .   S
    C2690  C2689     1.40693      .   S
    C2690  H2728     1.08308      .   S
    C2942  C2941     1.40693      .   S
    C2942  H2980     1.08308      .   S
    O1360  C1341     1.27224      .   S
    O2273  C2254     1.27224      .   S
    O1990  C1971     1.27271      .   S
    O1675  C1656     1.27227      .   S
    O840   C821      1.27227      .   S
    O1108  C1089     1.27271      .   S
    H2006  C1970     1.08314      .   S
    H1124  C1088     1.08314      .   S
    H856   C820      1.08313      .   S
    H1376  C1340     1.08334      .   S
    H1691  C1655     1.08313      .   S
    H2289  C2253     1.08334      .   S
    C136   C2736     1.39819      .   S
    C136   H182      1.08257      .   S
    C332   C2484     1.39819      .   S
    C332   H378      1.08257      .   S
    C2988  C535      1.39819      .   S
    C2988  H3034     1.08257      .   S
    C2484  H2530     1.08257      .   S
    C535   H581      1.08257      .   S
    C2736  H2782     1.08257      .   S
    C3109  O2962     1.27227      .   S
    C3082  O2458     1.27233      .   S
    C3091  O239      1.27233      .   S
    C3145  O635      1.27227      .   S
    C3136  O2710     1.27177      .   S
    C3100  O306      1.27177      .   S
    C556   C553      1.40238      .   S
    C556   C558      1.40426      .   S
    C353   C350      1.40238      .   S
    C353   C355      1.40426      .   S
    C2757  C2754     1.40238      .   S
    C2757  C2759     1.40426      .   S
    C157   C154      1.40238      .   S
    C157   C159      1.40426      .   S
    C3009  C3006     1.40238      .   S
    C3009  C3011     1.40426      .   S
    C2505  C2502     1.40238      .   S
    C2505  C2507     1.40426      .   S
    C2502  C2504     1.41016      .   S
    C154   C156      1.41016      .   S
    C2754  C2756     1.41016      .   S
    C350   C352      1.41016      .   S
    C553   C555      1.41016      .   S
    C3006  C3008     1.41016      .   S
    C2437  H2475     1.08260      .   S
    C2689  H2727     1.08260      .   S
    C285   H323      1.08260      .   S
    C218   H256      1.08260      .   S
    C2941  H2979     1.08260      .   S
    C614   H652      1.08260      .   S
    C1341  C2507     1.48181      .   S
    C1341  O244      1.26278      .   S
    C1656  C355      1.48126      .   S
    C1656  O2967     1.26278      .   S
    C1971  C558      1.48129      .   S
    C1971  O2715     1.26278      .   S
    C1089  C3011     1.48129      .   S
    C1089  O311      1.26278      .   S
    C2254  C159      1.48181      .   S
    C2254  O2463     1.26278      .   S
    C821   C2759     1.48126      .   S
    C821   O640      1.26278      .   S
    O2523  C2503     1.26629      .   S
    O371   C351      1.26682      .   S
    O574   C554      1.26639      .   S
    O2775  C2755     1.26682      .   S
    O175   C155      1.26629      .   S
    O3027  C3007     1.26639      .   S
    C2443  O2274     1.26278      .   S
    C2443  C1090     1.48181      .   S
    C2947  O1676     1.26278      .   S
    C2947  C822      1.48126      .   S
    C2695  O1991     1.26278      .   S
    C2695  C1342     1.48153      .   S
    C224   O1361     1.26278      .   S
    C224   C1972     1.48181      .   S
    C291   O1109     1.26278      .   S
    C291   C2255     1.48153      .   S
    C620   O841      1.26278      .   S
    C620   C1657     1.48126      .   S
    C3011  C3013     1.40817      .   S
    C2759  C2761     1.40857      .   S
    C159   C161      1.40860      .   S
    C2507  C2509     1.40860      .   S
    C355   C357      1.40857      .   S
    C558   C560      1.40817      .   S
    O2763  C3141     1.26899      .   S
    O359   C3105     1.26899      .   S
    O3015  C3096     1.26899      .   S
    O163   C3078     1.26899      .   S
    O562   C3132     1.26899      .   S
    O2511  C3087     1.26899      .   S
    C1655  C1657     1.40426      .   S
    C1655  C1652     1.40238      .   S
    C1340  C1342     1.40426      .   S
    C1340  C1337     1.40238      .   S
    C820   C822      1.40426      .   S
    C820   C407      1.40238      .   S
    C2253  C2255     1.40426      .   S
    C2253  C2250     1.40238      .   S
    C1970  C1972     1.40426      .   S
    C1970  C1967     1.40238      .   S
    C1088  C1090     1.40426      .   S
    C1088  C1085     1.40238      .   S
    C555   C554      1.47969      .   S
    C555   C559      1.40076      .   S
    C2504  C2503     1.47969      .   S
    C2504  C2508     1.40062      .   S
    C3008  C3007     1.47969      .   S
    C3008  C3012     1.40076      .   S
    C156   C155      1.47969      .   S
    C156   C160      1.40062      .   S
    C352   C351      1.47969      .   S
    C352   C356      1.40113      .   S
    C2756  C2755     1.47969      .   S
    C2756  C2760     1.40113      .   S
    H376   C330      1.08306      .   S
    H2780  C2734     1.08306      .   S
    H3032  C2986     1.08296      .   S
    H579   C533      1.08296      .   S
    H180   C134      1.08294      .   S
    H2528  C2482     1.08294      .   S
    O1352  C1328     1.27495      .   S
    O1667  C1643     1.27495      .   S
    O2265  C2241     1.27495      .   S
    O1982  C1958     1.27495      .   S
    O1100  C1076     1.27495      .   S
    O832   C398      1.27495      .   S
    C554   O2713     1.26993      .   S
    C2503  O242      1.27038      .   S
    C155   O2461     1.27038      .   S
    C3007  O309      1.26993      .   S
    C351   O2965     1.27044      .   S
    C2755  O638      1.27044      .   S
    H2005  C1967     1.08330      .   S
    H1123  C1085     1.08330      .   S
    H855   C407      1.08279  1_565   S
    H1375  C1337     1.08281  1_655   S
    H1690  C1652     1.08279  1_655   S
    H2288  C2250     1.08281  1_565   S
    C1090  C1092     1.40860      .   S
    C1342  C1344     1.40878      .   S
    C2255  C2257     1.40878      .   S
    C1657  C1659     1.40857      .   S
    C1972  C1974     1.40860      .   S
    C822   C824      1.40857      .   S
    C1967  C1969     1.41016      .   S
    C1652  C1654     1.41016      .   S
    C1085  C1087     1.41016      .   S
    C2250  C2252     1.41016      .   S
    C407   C819      1.41016      .   S
    C1337  C1339     1.41016      .   S
    C357   C356      1.39027      .   S
    C357   H391      1.08287      .   S
    C560   C559      1.39027      .   S
    C560   H594      1.08327      .   S
    C2509  C2508     1.39027      .   S
    C2509  H2543     1.08338      .   S
    C2761  C2760     1.39027      .   S
    C2761  H2795     1.08287      .   S
    C161   C160      1.39027      .   S
    C161   H195      1.08338      .   S
    C3013  C3012     1.39027      .   S
    C3013  H3047     1.08327      .   S
    C3012  H3046     1.08353      .   S
    C160   H194      1.08312      .   S
    C2760  H2794     1.08312      .   S
    C559   H593      1.08353      .   S
    C356   H390      1.08312      .   S
    C2508  H2542     1.08312      .   S
    C3141  O625      1.26899      .   S
    C3141  C3142     1.48115      .   S
    C3105  O2952     1.26899      .   S
    C3105  C3106     1.48115      .   S
    C3096  O296      1.26899      .   S
    C3096  C3097     1.48115      .   S
    C3078  O2448     1.26899      .   S
    C3078  C3079     1.48115      .   S
    C3132  O2700     1.26899      .   S
    C3132  C3133     1.48115      .   S
    C3087  O229      1.26899      .   S
    C3087  C3088     1.48115      .   S
    O565   C2674     1.26777      .   S
    O2766  C599      1.26808      .   S
    O362   C2926     1.26808      .   S
    O2514  C98       1.26792      .   S
    O166   C2422     1.26792      .   S
    O3018  C270      1.26777      .   S
    C2482  C3088     1.40603      .   S
    C2482  C2483     1.39584      .   S
    C2734  C3142     1.40603      .   S
    C2734  C2735     1.39584      .   S
    C330   C3106     1.40603      .   S
    C330   C331      1.39584      .   S
    C134   C3079     1.40603      .   S
    C134   C135      1.39584      .   S
    C533   C3133     1.40603      .   S
    C533   C534      1.39584      .   S
    C2986  C3097     1.40603      .   S
    C2986  C2987     1.39584      .   S
    C398   O833      1.27302      .   S
    C398   C399      1.50873      .   S
    C1328  O1353     1.27276      .   S
    C1328  C1329     1.50873      .   S
    C1643  O1668     1.27302      .   S
    C1643  C1644     1.50873      .   S
    C2241  O2266     1.27276      .   S
    C2241  C2242     1.50873      .   S
    C1958  O1983     1.27239      .   S
    C1958  C1959     1.50873      .   S
    C1076  O1101     1.27239      .   S
    C1076  C1077     1.50873      .   S
    H2781  C2735     1.08338      .   S
    H377   C331      1.08338      .   S
    H3033  C2987     1.08338      .   S
    H2529  C2483     1.08338      .   S
    H580   C534      1.08338      .   S
    H181   C135      1.08338      .   S
    H1999  C1957     1.08234      .   S
    H1369  C1327     1.08234      .   S
    H1684  C1642     1.08234      .   S
    H849   C397      1.08234      .   S
    H1117  C1075     1.08234      .   S
    H2282  C2240     1.08234      .   S
    C1659  H1693     1.08287      .   S
    C1659  C1658     1.39027      .   S
    C1092  H1126     1.08338      .   S
    C1092  C1091     1.39027      .   S
    C824   H858      1.08287      .   S
    C824   C823      1.39027      .   S
    C1344  H1378     1.08289      .   S
    C1344  C1343     1.39027      .   S
    C2257  H2291     1.08289      .   S
    C2257  C2256     1.39027      .   S
    C1974  H2008     1.08338      .   S
    C1974  C1973     1.39027      .   S
    C3106  C2923     1.40603      .   S
    C3142  C596      1.40603      .   S
    C3097  C267      1.40603      .   S
    C3088  C197      1.40603      .   S
    C3079  C2419     1.40603      .   S
    C3133  C2671     1.40603      .   S
    C2735  C3144     1.40567      .   S
    C135   C3081     1.40557      .   S
    C534   C3135     1.40558      .   S
    C331   C3108     1.40567      .   S
    C2483  C3090     1.40557      .   S
    C2987  C3099     1.40558      .   S
    C2252  C2256     1.40111      .   S
    C2252  C2251     1.47969  1_545   S
    C1087  C1091     1.40062      .   S
    C1087  C1086     1.47969      .   S
    C1969  C1973     1.40062      .   S
    C1969  C1968     1.47969      .   S
    C819   C823      1.40113      .   S
    C819   C408      1.47969  1_545   S
    C1339  C1343     1.40111      .   S
    C1339  C1338     1.47969  1_455   S
    C1654  C1658     1.40113      .   S
    C1654  C1653     1.47969  1_455   S
    C599   O627      1.27040      .   S
    C599   C600      1.49256      .   S
    C98    O231      1.27083      .   S
    C98    C204      1.49198      .   S
    C270   O298      1.27101      .   S
    C270   C271      1.49193      .   S
    C2422  O2450     1.27083      .   S
    C2422  C2423     1.49198      .   S
    C2926  O2954     1.27040      .   S
    C2926  C2927     1.49256      .   S
    C2674  O2702     1.27101      .   S
    C2674  C2675     1.49193      .   S
    O1673  C1653     1.26682      .   S
    O838   C408      1.26682      .   S
    O1106  C1086     1.26629      .   S
    O2271  C2251     1.26672      .   S
    O1358  C1338     1.26672      .   S
    O1988  C1968     1.26629      .   S
    H1113  C1067     1.08257      .   S
    H845   C787      1.08257      .   S
    H1680  C1634     1.08257      .   S
    H1365  C1319     1.08257      .   S
    H1995  C1949     1.08257      .   S
    H2278  C2232     1.08257      .   S
    C1327  C1329     1.41110      .   S
    C1327  C1330     1.41201      .   S
    C2240  C2242     1.41110      .   S
    C2240  C2243     1.41201      .   S
    C397   C399      1.41088      .   S
    C397   C400      1.41201      .   S
    C1642  C1644     1.41088      .   S
    C1642  C1645     1.41201      .   S
    C1957  C1959     1.41150      .   S
    C1957  C1960     1.41201      .   S
    C1075  C1077     1.41150      .   S
    C1075  C1078     1.41201      .   S
    C2242  C2246     1.41033      .   S
    C1329  C1333     1.41033      .   S
    C1644  C1648     1.41033      .   S
    C1959  C1963     1.41033      .   S
    C1077  C1081     1.41033      .   S
    C399   C403      1.41033      .   S
    C2256  H2290     1.08292      .   S
    C1658  H1692     1.08312      .   S
    C1343  H1377     1.08292      .   S
    C1973  H2007     1.08312      .   S
    C1091  H1125     1.08312      .   S
    C823   H857      1.08312      .   S
    H2971  C2925     1.08257      .   S
    H2467  C2421     1.08257      .   S
    H248   C97       1.08257      .   S
    H315   C269      1.08257      .   S
    H644   C598      1.08257      .   S
    H2719  C2673     1.08257      .   S
    C2251  O1107     1.27049      .   S
    C408   O1674     1.27044      .   S
    C1338  O1989     1.27049      .   S
    C1653  O839      1.27044      .   S
    C1968  O1359     1.27038      .   S
    C1086  O2272     1.27038      .   S
    C1067  C1634     1.39819      .   S
    C1067  C1069     1.40697      .   S
    C787   C1949     1.39819      .   S
    C787   C789      1.40665      .   S
    C1319  C2232     1.39819      .   S
    C1319  C1321     1.40707      .   S
    C2232  C2234     1.40707      .   S
    C1949  C1951     1.40697      .   S
    C1634  C1636     1.40665      .   S
    C197   H246      1.08349      .   S
    C197   C96       1.39584      .   S
    C2671  H2717     1.08296      .   S
    C2671  C2672     1.39584      .   S
    C596   H642      1.08306      .   S
    C596   C597      1.39584      .   S
    C2923  H2969     1.08306      .   S
    C2923  C2924     1.39584      .   S
    C2419  H2465     1.08349      .   S
    C2419  C2420     1.39584      .   S
    C267   H313      1.08296      .   S
    C267   C268      1.39584      .   S
    O1349  C1950     1.26837      .   S
    O1664  C788      1.26808      .   S
    O2262  C1068     1.26837      .   S
    O829   C1635     1.26808      .   S
    O1097  C2233     1.26792      .   S
    O1979  C1320     1.26792      .   S
    C3099  C268      1.40558      .   S
    C3099  C3098     1.48157      .   S
    C3108  C2924     1.40567      .   S
    C3108  C3107     1.48126      .   S
    C3144  C597      1.40567      .   S
    C3144  C3143     1.48126      .   S
    C3081  C2420     1.40611      .   S
    C3081  C3080     1.48055      .   S
    C3090  C96       1.40611      .   S
    C3090  C3089     1.48055      .   S
    C3135  C2672     1.40558      .   S
    C3135  C3134     1.48157      .   S
    C97    C204      1.40707      .   S
    C97    C2610     1.39819      .   S
    C598   C600      1.40665      .   S
    C598   C2862     1.39819      .   S
    C2925  C2927     1.40665      .   S
    C2925  C661      1.39819      .   S
    C2421  C2423     1.40707      .   S
    C2421  C464      1.39819      .   S
    C2673  C2675     1.40726      .   S
    C2673  C3        1.39819      .   S
    C269   C271      1.40726      .   S
    C269   C2358     1.39819      .   S
    C271   C272      1.40821      .   S
    C2675  C2676     1.40821      .   S
    C204   C205      1.40840      .   S
    C2927  C2928     1.40850      .   S
    C600   C601      1.40850      .   S
    C2423  C2424     1.40840      .   S
    H2779  C2733     1.08337      .   S
    H179   C133      1.08295      .   S
    H375   C329      1.08337      .   S
    H3031  C2985     1.08308      .   S
    H578   C532      1.08308      .   S
    H2527  C2481     1.08295      .   S
    H850   C400      1.08341  1_545   S
    H2000  C1960     1.08218      .   S
    H1370  C1330     1.08299  1_455   S
    H1685  C1645     1.08341  1_455   S
    H1118  C1078     1.08218      .   S
    H2283  C2243     1.08299  1_545   S
    O2764  C3143     1.26804      .   S
    O2512  C3089     1.26848      .   S
    O164   C3080     1.26848      .   S
    O563   C3134     1.26797      .   S
    O3016  C3098     1.26797      .   S
    O360   C3107     1.26804      .   S
    C1645  C1647     1.41131      .   S
    C1960  C1962     1.41161      .   S
    C400   C402      1.41131      .   S
    C2243  C2245     1.41150      .   S
    C1330  C1332     1.41150      .   S
    C1078  C1080     1.41161      .   S
    C403   H851      1.08286      .   S
    C403   C404      1.40647      .   S
    C1333  H1371     1.08264      .   S
    C1333  C1334     1.40647      .   S
    C1081  H1119     1.08224      .   S
    C1081  C1082     1.40647      .   S
    C1963  H2001     1.08224      .   S
    C1963  C1964     1.40647      .   S
    C1648  H1686     1.08286      .   S
    C1648  C1649     1.40647      .   S
    C2246  H2284     1.08264      .   S
    C2246  C2247     1.40647      .   S
    C268   H314      1.08338      .   S
    C2672  H2718     1.08338      .   S
    C96    H247      1.08338      .   S
    C2924  H2970     1.08338      .   S
    C2420  H2466     1.08338      .   S
    C597   H643      1.08338      .   S
    C1069  C1068     1.49130      .   S
    C1069  C1070     1.40882      .   S
    C789   C788      1.49256      .   S
    C789   C790      1.40850      .   S
    C1951  C1950     1.49130      .   S
    C1951  C1952     1.40882      .   S
    C1321  C1320     1.49198      .   S
    C1321  C1322     1.40840      .   S
    C2234  C2233     1.49198      .   S
    C2234  C2235     1.40840      .   S
    C1636  C1635     1.49256      .   S
    C1636  C1637     1.40850      .   S
    C3134  O2701     1.26797      .   S
    C3143  O626      1.26804      .   S
    C3107  O2953     1.26804      .   S
    C3098  O297      1.26797      .   S
    C3089  O230      1.26793      .   S
    C3080  O2449     1.26793      .   S
    C2233  O2261     1.27083      .   S
    C788   O828      1.27040      .   S
    C1950  O1978     1.27072      .   S
    C1320  O1348     1.27083      .   S
    C1635  O1663     1.27040      .   S
    C1068  O1096     1.27072      .   S
    C329   C2985     1.39567      .   S
    C329   C3287     1.40880      .   S
    C133   C2481     1.39567      .   S
    C133   C3281     1.40890      .   S
    C2733  C532      1.39567      .   S
    C2733  C3295     1.40880      .   S
    C532   C3293     1.40848      .   S
    C2481  C3283     1.40890      .   S
    C2985  C3285     1.40848      .   S
    H2908  C2862     1.08257      .   S
    H2656  C2610     1.08257      .   S
    H707   C661      1.08257      .   S
    H49    C3        1.08257      .   S
    H2404  C2358     1.08257      .   S
    H510   C464      1.08257      .   S
    O561   C3292     1.26845      .   S
    O2510  C3282     1.26845      .   S
    O162   C3280     1.26845      .   S
    O358   C3286     1.26845      .   S
    O2762  C3294     1.26845      .   S
    O3014  C3284     1.26845      .   S
    C2610  C2612     1.40707      .   S
    C2358  C2360     1.40726      .   S
    C2862  C2864     1.40697      .   S
    C3     C5        1.40726      .   S
    C661   C663      1.40697      .   S
    C464   C466      1.40707      .   S
    C272   H316      1.08261      .   S
    C272   C2361     1.40510      .   S
    C601   H645      1.08261      .   S
    C601   C2865     1.40510      .   S
    C2424  H2468     1.08261      .   S
    C2424  C467      1.40510      .   S
    C2676  H2720     1.08261      .   S
    C2676  C6        1.40510      .   S
    C205   H249      1.08261      .   S
    C205   C2613     1.40510      .   S
    C2928  H2972     1.08261      .   S
    C2928  C664      1.40510      .   S
    C2245  C2247     1.41009      .   S
    C2245  C2244     1.50834      .   S
    C1332  C1334     1.41009      .   S
    C1332  C1331     1.50834      .   S
    C1647  C1649     1.41009      .   S
    C1647  C1646     1.50834      .   S
    C1962  C1964     1.41009      .   S
    C1962  C1961     1.50834      .   S
    C1080  C1082     1.41009      .   S
    C1080  C1079     1.50834      .   S
    C402   C404      1.41009      .   S
    C402   C401      1.50834      .   S
    C2247  H2285     1.08243      .   S
    C404   H852      1.08263      .   S
    C1649  H1687     1.08263      .   S
    C1964  H2002     1.08230      .   S
    C1334  H1372     1.08243      .   S
    C1082  H1120     1.08230      .   S
    C2235  C1322     1.40510      .   S
    C2235  H2279     1.08261      .   S
    C1322  H1366     1.08261      .   S
    C1637  C1070     1.40510      .   S
    C1637  H1681     1.08261      .   S
    C1952  C790      1.40510      .   S
    C1952  H1996     1.08261      .   S
    C790   H846      1.08261      .   S
    C1070  H1114     1.08261      .   S
    C3285  C3284     1.40622      .   S
    C3285  C266      1.40848      .   S
    C3281  C3280     1.40622      .   S
    C3281  C2418     1.40836      .   S
    C3283  C3282     1.40622      .   S
    C3283  C196      1.40836      .   S
    C3295  C3294     1.40622      .   S
    C3295  C595      1.40880      .   S
    C3293  C3292     1.40622      .   S
    C3293  C2670     1.40848      .   S
    C3287  C3286     1.40622      .   S
    C3287  C2922     1.40880      .   S
    C3282  O228      1.26845      .   S
    C3284  O295      1.26845      .   S
    C3294  O624      1.26845      .   S
    C3292  O2699     1.26845      .   S
    C3286  O2951     1.26845      .   S
    C3280  O2447     1.26845      .   S
    C2360  C2361     1.40821      .   S
    C2360  C2359     1.49193      .   S
    C466   C467      1.40840      .   S
    C466   C465      1.49198      .   S
    C5     C6        1.40821      .   S
    C5     C4        1.49193      .   S
    C2612  C2613     1.40840      .   S
    C2612  C2611     1.49198      .   S
    C2864  C2865     1.40882      .   S
    C2864  C2863     1.49130      .   S
    C663   C664      1.40882      .   S
    C663   C662      1.49130      .   S
    C6     H50       1.08261      .   S
    C2865  H2909     1.08261      .   S
    C2613  H2657     1.08261      .   S
    C664   H708      1.08261      .   S
    C2361  H2405     1.08261      .   S
    C467   H511      1.08261      .   S
    O1669  C1646     1.27469  1_455   S
    O1102  C1079     1.27469      .   S
    O1354  C1331     1.27469  1_455   S
    O2267  C2244     1.27469  1_545   S
    O1984  C1961     1.27469      .   S
    O834   C401      1.27469  1_545   S
    C401   O835      1.27252      .   S
    C1331  O1355     1.27273      .   S
    C1961  O1985     1.27285      .   S
    C2244  O2268     1.27273      .   S
    C1079  O1103     1.27285      .   S
    C1646  O1670     1.27252      .   S
    O1671  C3172     1.27227      .   S
    O1986  C3244     1.27123      .   S
    O1104  C3208     1.27123      .   S
    O836   C3172     1.27227      .   S
    O1356  C3244     1.27233      .   S
    O2269  C3208     1.27233      .   S
    C595   C2670     1.39567      .   S
    C595   H641      1.08337      .   S
    C266   C2922     1.39567      .   S
    C266   H312      1.08308      .   S
    C2418  C196      1.39567      .   S
    C2418  H2464     1.08350      .   S
    C2670  H2716     1.08308      .   S
    C196   H245      1.08350      .   S
    C2922  H2968     1.08337      .   S
    C3244  C3245     1.50353      .   S
    C3172  C3173     1.50353      .   S
    C3208  C3209     1.50353      .   S
    O2640  C662      1.26837      .   S
    O2892  C465      1.26792      .   S
    O691   C2611     1.26792      .   S
    O494   C2863     1.26837      .   S
    O33    C2359     1.26777      .   S
    O2388  C4        1.26777      .   S
    C3173  C405      1.40869      .   S
    C3173  C1650     1.40869      .   S
    C3245  C1335     1.40922      .   S
    C3245  C1965     1.40868      .   S
    C3209  C2248     1.40922      .   S
    C3209  C1083     1.40868      .   S
    H1688  C1650     1.08260      .   S
    H853   C405      1.08260      .   S
    H1121  C1083     1.08260      .   S
    H2286  C2248     1.08260      .   S
    H2003  C1965     1.08260      .   S
    H1373  C1335     1.08260      .   S
    C2359  O2387     1.27101      .   S
    C465   O493      1.27083      .   S
    C4     O32       1.27101      .   S
    C2863  O2891     1.27072      .   S
    C2611  O2639     1.27083      .   S
    C662   O690      1.27072      .   S
    O826   C3168     1.26899      .   S
    O2259  C3204     1.26899      .   S
    O1661  C3168     1.26899      .   S
    O1094  C3204     1.26899      .   S
    O1346  C3240     1.26899      .   S
    O1976  C3240     1.26899      .   S
    C1335  C1336     1.40693      .   S
    C2248  C2249     1.40693      .   S
    C405   C406      1.40693      .   S
    C1083  C1084     1.40693      .   S
    C1965  C1966     1.40693      .   S
    C1650  C1651     1.40693      .   S
    O2890  C3125     1.26848      .   S
    O492   C3125     1.26793      .   S
    O689   C3152     1.26848      .   S
    O31    C3062     1.26797      .   S
    O2638  C3152     1.26793      .   S
    O2386  C3062     1.26797      .   S
    C406   H854      1.08308      .   S
    C406   C3175     1.41318      .   S
    C1651  H1689     1.08308      .   S
    C1651  C3175     1.41318      .   S
    C2249  H2287     1.08308      .   S
    C2249  C3211     1.41318      .   S
    C1966  H2004     1.08308      .   S
    C1966  C3247     1.41318      .   S
    C1084  H1122     1.08308      .   S
    C1084  C3211     1.41318      .   S
    C1336  H1374     1.08308      .   S
    C1336  C3247     1.41318      .   S
    C3168  C3169     1.48115      .   S
    C3204  C3205     1.48115      .   S
    C3240  C3241     1.48115      .   S
    C3062  C3063     1.48157      .   S
    C3125  C3126     1.48055      .   S
    C3152  C3153     1.48055      .   S
    C3211  C3210     1.42548      .   S
    C3175  C3174     1.42548      .   S
    C3247  C3246     1.42548      .   S
    C3153  C2609     1.40611      .   S
    C3153  C660      1.40557      .   S
    C3063  C2357     1.40558      .   S
    C3063  C2        1.40558      .   S
    C3126  C463      1.40611      .   S
    C3126  C2861     1.40557      .   S
    C3246  O1357     1.27301      .   S
    C3246  O1987     1.27301      .   S
    C3210  O1105     1.27301      .   S
    C3210  O2270     1.27301      .   S
    C3174  O837      1.27301      .   S
    C3174  O1672     1.27301      .   S
    O2204  C2181     1.27469      .   S
    O1417  C1394     1.27469      .   S
    O1039  C2024     1.27469  1_455   S
    O897   C874      1.27469  1_455   S
    O810   C1583     1.27469  1_545   S
    O1165  C1142     1.27469  1_545   S
    H2403  C2357     1.08338      .   S
    H706   C660      1.08338      .   S
    H2907  C2861     1.08338      .   S
    H2655  C2609     1.08338      .   S
    H48    C2        1.08338      .   S
    H509   C463      1.08338      .   S
    O29    C3276     1.26845      .   S
    O2384  C3276     1.26845      .   S
    O2888  C3290     1.26845      .   S
    O2636  C3296     1.26845      .   S
    O687   C3296     1.26845      .   S
    O490   C3290     1.26845      .   S
    C463   C462      1.39584      .   S
    C2609  C2608     1.39584      .   S
    C2357  C2356     1.39584      .   S
    C2     C1        1.39584      .   S
    C2861  C2860     1.39584      .   S
    C660   C659      1.39584      .   S
    O503   C483      1.26672      .   S
    O700   C680      1.26629      .   S
    O2397  C2377     1.26639      .   S
    O2649  C2629     1.26672      .   S
    O42    C22       1.26639      .   S
    O2901  C2881     1.26629      .   S
    C3169  C785      1.40603      .   S
    C3169  C1632     1.40603      .   S
    C3241  C1317     1.40603      .   S
    C3241  C1947     1.40603      .   S
    C3205  C1065     1.40603      .   S
    C3205  C2230     1.40603      .   S
    C3276  C3277     1.40622      .   S
    C3290  C3291     1.40622      .   S
    C3296  C3297     1.40622      .   S
    C659   H705      1.08294      .   S
    C659   C3151     1.40603      .   S
    C462   H508      1.08349      .   S
    C462   C3124     1.40603      .   S
    C2860  H2906     1.08294      .   S
    C2860  C3124     1.40603      .   S
    C1     H47       1.08296      .   S
    C1     C3061     1.40603      .   S
    C2608  H2654     1.08349      .   S
    C2608  C3151     1.40603      .   S
    C2356  H2402     1.08296      .   S
    C2356  C3061     1.40603      .   S
    H1433  C1393     1.08218      .   S
    H1055  C2023     1.08299  1_455   S
    H913   C873      1.08292  1_455   S
    H2220  C2180     1.08218      .   S
    H1622  C1582     1.08292  1_545   S
    H1181  C1141     1.08299  1_545   S
    H1111  C1065     1.08294      .   S
    H1678  C1632     1.08306      .   S
    H843   C785      1.08306      .   S
    H1993  C1947     1.08294      .   S
    H2276  C2230     1.08349      .   S
    H1363  C1317     1.08349      .   S
    C3124  C3123     1.48115      .   S
    C3151  C3150     1.48115      .   S
    C3061  C3060     1.48115      .   S
    C2181  O2205     1.27285      .   S
    C2181  C2182     1.50834      .   S
    C1142  O1166     1.27273      .   S
    C1142  C1143     1.50834      .   S
    C1394  O1418     1.27285      .   S
    C1394  C1395     1.50834      .   S
    C2024  O1040     1.27273      .   S
    C2024  C2025     1.50834      .   S
    C874   O898      1.27227      .   S
    C874   C875      1.50834      .   S
    C1583  O811      1.27227      .   S
    C1583  C1584     1.50834      .   S
    C3060  O2385     1.26899      .   S
    C3060  O30       1.26899      .   S
    C3123  O491      1.26899      .   S
    C3123  O2889     1.26899      .   S
    C3150  O688      1.26899      .   S
    C3150  O2637     1.26899      .   S
    C1317  C1318     1.39584      .   S
    C1947  C1948     1.39584      .   S
    C1065  C1066     1.39584      .   S
    C785   C786      1.39584      .   S
    C2230  C2231     1.39584      .   S
    C1632  C1633     1.39584      .   S
    H59    C21       1.08317      .   S
    H2666  C2628     1.08281      .   S
    H262   C482      1.08281      .   S
    H2918  C2880     1.08330      .   S
    H717   C679      1.08330      .   S
    H2414  C2376     1.08317      .   S
    C2377  O43       1.26993      .   S
    C2377  C2378     1.47969      .   S
    C2629  O701      1.27049      .   S
    C2629  C2630     1.47969      .   S
    C483   O2902     1.27049      .   S
    C483   C484      1.47969      .   S
    C2881  O504      1.27038      .   S
    C2881  C2882     1.47969      .   S
    C22    O2398     1.26993      .   S
    C22    C23       1.47969      .   S
    C680   O2650     1.27038      .   S
    C680   C681      1.47969      .   S
    C873   C875      1.41102      .   S
    C873   C870      1.41201      .   S
    C1582  C1584     1.41102      .   S
    C1582  C1579     1.41201      .   S
    C1393  C1395     1.41161      .   S
    C1393  C1390     1.41201      .   S
    C1141  C1143     1.41150      .   S
    C1141  C1138     1.41201      .   S
    C2023  C2025     1.41150      .   S
    C2023  C2020     1.41201      .   S
    C2180  C2182     1.41161      .   S
    C2180  C2177     1.41201      .   S
    C1395  C1397     1.41009      .   S
    C2025  C2027     1.41009      .   S
    C875   C877      1.41009      .   S
    C1143  C1145     1.41009      .   S
    C2182  C2184     1.41009      .   S
    C1584  C1586     1.41009      .   S
    C3277  C0        1.40848      .   S
    C3277  C2355     1.40848      .   S
    C3291  C2859     1.40890      .   S
    C3291  C461      1.40836      .   S
    C3297  C658      1.40890      .   S
    C3297  C2607     1.40836      .   S
    C2376  C2378     1.41016      .   S
    C2376  C2379     1.40238      .   S
    C2628  C2630     1.41016      .   S
    C2628  C2631     1.40238      .   S
    C21    C23       1.41016      .   S
    C21    C24       1.40238      .   S
    C482   C484      1.41016      .   S
    C482   C485      1.40238      .   S
    C679   C681      1.41016      .   S
    C679   C682      1.40238      .   S
    C2880  C2882     1.41016      .   S
    C2880  C2883     1.40238      .   S
    H2905  C2859     1.08295      .   S
    H507   C461      1.08350      .   S
    H2653  C2607     1.08350      .   S
    H704   C658      1.08295      .   S
    H46    C0        1.08308      .   S
    H2401  C2355     1.08308      .   S
    C2378  C2382     1.40076      .   S
    C484   C488      1.40111      .   S
    C681   C685      1.40062      .   S
    C23    C27       1.40076      .   S
    C2630  C2634     1.40111      .   S
    C2882  C2886     1.40062      .   S
    H912   C870      1.08234      .   S
    H1621  C1579     1.08234      .   S
    H1054  C2020     1.08234      .   S
    H1180  C1138     1.08234      .   S
    H1432  C1390     1.08234      .   S
    H2219  C2177     1.08234      .   S
    C1318  H1364     1.08338      .   S
    C1318  C3243     1.40611      .   S
    C1948  H1994     1.08338      .   S
    C1948  C3243     1.40557      .   S
    C1066  H1112     1.08338      .   S
    C1066  C3207     1.40557      .   S
    C2231  H2277     1.08338      .   S
    C2231  C3207     1.40611      .   S
    C786   H844      1.08338      .   S
    C786   C3171     1.40567      .   S
    C1633  H1679     1.08338      .   S
    C1633  C3171     1.40567      .   S
    C1579  C1581     1.41116      .   S
    C1138  C1140     1.41110      .   S
    C2177  C2179     1.41150      .   S
    C2020  C2022     1.41110      .   S
    C1390  C1392     1.41150      .   S
    C870   C872      1.41116      .   S
    H718   C682      1.08314      .   S
    H263   C485      1.08334      .   S
    H2415  C2379     1.08273      .   S
    H60    C24       1.08273      .   S
    H2667  C2631     1.08334      .   S
    H2919  C2883     1.08314      .   S
    C658   C2544     1.39567      .   S
    C0     C2292     1.39567      .   S
    C2607  C721      1.39567      .   S
    C2355  C63       1.39567      .   S
    C2859  C392      1.39567      .   S
    C461   C2796     1.39567      .   S
    O1042  C3255     1.27301      .   S
    O813   C3183     1.27301      .   S
    O1168  C3219     1.27301      .   S
    O900   C3183     1.27301      .   S
    O2207  C3219     1.27301      .   S
    O1420  C3255     1.27301      .   S
    C2379  C2381     1.40426      .   S
    C2883  C2885     1.40426      .   S
    C2631  C2633     1.40426      .   S
    C682   C684      1.40426      .   S
    C24    C26       1.40426      .   S
    C485   C487      1.40426      .   S
    C1145  H1183     1.08243      .   S
    C1145  C1144     1.40647      .   S
    C2027  H1057     1.08243      .   S
    C2027  C2026     1.40647      .   S
    C1397  H1435     1.08230      .   S
    C1397  C1396     1.40647      .   S
    C1586  H1624     1.08289      .   S
    C1586  C1585     1.40647      .   S
    C877   H915      1.08289      .   S
    C877   C876      1.40647      .   S
    C2184  H2222     1.08230      .   S
    C2184  C2183     1.40647      .   S
    C3171  C3170     1.48126      .   S
    C3243  C3242     1.48055      .   S
    C3207  C3206     1.48055      .   S
    C2382  H2416     1.08353      .   S
    C2382  C2383     1.39027      .   S
    C488   H264      1.08292      .   S
    C488   C489      1.39027      .   S
    C685   H719      1.08312      .   S
    C685   C686      1.39027      .   S
    C2634  H2668     1.08292      .   S
    C2634  C2635     1.39027      .   S
    C2886  H2920     1.08312      .   S
    C2886  C2887     1.39027      .   S
    C27    H61       1.08353      .   S
    C27    C28       1.39027      .   S
    C3255  C3256     1.42548      .   S
    C3219  C3220     1.42548      .   S
    C3183  C3184     1.42548      .   S
    C2179  C2183     1.41033      .   S
    C2179  C2178     1.50873      .   S
    C872   C876      1.41033      .   S
    C872   C871      1.50873      .   S
    C1392  C1396     1.41033      .   S
    C1392  C1391     1.50873      .   S
    C2022  C2026     1.41033      .   S
    C2022  C2021     1.50873      .   S
    C1140  C1144     1.41033      .   S
    C1140  C1139     1.50873      .   S
    C1581  C1585     1.41033      .   S
    C1581  C1580     1.50873      .   S
    O698   C3154     1.27123      .   S
    O2395  C3064     1.27177      .   S
    O501   C3127     1.27233      .   S
    O40    C3064     1.27177      .   S
    O2899  C3127     1.27123      .   S
    O2647  C3154     1.27233      .   S
    C2381  C2383     1.40817      .   S
    C2381  C1404     1.48129      .   S
    C26    C28       1.40817      .   S
    C26    C2191     1.48129      .   S
    C684   C686      1.40860      .   S
    C684   C2034     1.48181      .   S
    C2633  C2635     1.40878      .   S
    C2633  C884      1.48153      .   S
    C2885  C2887     1.40860      .   S
    C2885  C1152     1.48181      .   S
    C487   C489      1.40878      .   S
    C487   C797      1.48153      .   S
    C1585  H1623     1.08261      .   S
    C876   H914      1.08261      .   S
    C1144  H1182     1.08264      .   S
    C2026  H1056     1.08264      .   S
    C2183  H2221     1.08224      .   S
    C1396  H1434     1.08224      .   S
    C686   H720      1.08338      .   S
    C2383  H2417     1.08327      .   S
    C2635  H2669     1.08289      .   S
    C28    H62       1.08327      .   S
    C2887  H2921     1.08338      .   S
    C489   H265      1.08289      .   S
    C2796  H2842     1.08350      .   S
    C2796  C3289     1.40836      .   S
    C392   H444      1.08295      .   S
    C392   C3289     1.40890      .   S
    C2292  H2338     1.08337      .   S
    C2292  C3279     1.40880      .   S
    C63    H112      1.08337      .   S
    C63    C3279     1.40880      .   S
    C2544  H2590     1.08295      .   S
    C2544  C3299     1.40890      .   S
    C721   H767      1.08350      .   S
    C721   C3299     1.40836      .   S
    O1163  C1139     1.27495      .   S
    O1037  C2021     1.27495      .   S
    O895   C871      1.27495      .   S
    O808   C1580     1.27495      .   S
    O2202  C2178     1.27495      .   S
    O1415  C1391     1.27495      .   S
    C3170  O827      1.26804      .   S
    C3170  O1662     1.26804      .   S
    C3206  O2260     1.26793      .   S
    C3206  O1095     1.26848      .   S
    C3242  O1347     1.26793      .   S
    C3242  O1977     1.26848      .   S
    C3064  C3065     1.50353      .   S
    C3127  C3128     1.50353      .   S
    C3154  C3155     1.50353      .   S
    O2210  C2191     1.27271      .   S
    O816   C797      1.27213      .   S
    O1171  C1152     1.27224      .   S
    O1045  C2034     1.27224      .   S
    O903   C884      1.27213      .   S
    O1423  C1404     1.27271      .   S
    C3289  C3288     1.40622      .   S
    C3299  C3298     1.40622      .   S
    C3279  C3278     1.40622      .   S
    C1580  O809      1.27276      .   S
    C871   O896      1.27276      .   S
    C1139  O1164     1.27276      .   S
    C1391  O1416     1.27239      .   S
    C2021  O1038     1.27276      .   S
    C2178  O2203     1.27239      .   S
    C797   O2904     1.26278      .   S
    C1404  O45       1.26278      .   S
    C2034  O2652     1.26278      .   S
    C884   O703      1.26278      .   S
    C1152  O506      1.26278      .   S
    C2191  O2400     1.26278      .   S
    H2911  C2869     1.08252      .   S
    H2659  C2617     1.08252      .   S
    H710   C668      1.08252      .   S
    H513   C471      1.08252      .   S
    H52    C10       1.08252      .   S
    H2407  C2365     1.08252      .   S
    H1052  C2016     1.08272      .   S
    H910   C866      1.08286      .   S
    H1178  C1134     1.08272      .   S
    H2217  C2173     1.08302      .   S
    H1430  C1386     1.08302      .   S
    H1619  C1575     1.08286      .   S
    C3220  C2186     1.41318      .   S
    C3220  C1147     1.41318      .   S
    C3256  C1399     1.41318      .   S
    C3256  C2029     1.41318      .   S
    C3184  C879      1.41318      .   S
    C3184  C1588     1.41318      .   S
    H1185  C1147     1.08308      .   S
    H1059  C2029     1.08308      .   S
    H917   C879      1.08308      .   S
    H1626  C1588     1.08308      .   S
    H2224  C2186     1.08308      .   S
    H1437  C1399     1.08308      .   S
    C471   C2869     1.41076      .   S
    C471   C470      1.41173      .   S
    C10    C2365     1.41076      .   S
    C10    C9        1.41158      .   S
    C2869  C2868     1.41140      .   S
    C2617  C668      1.41076      .   S
    C2617  C2616     1.41173      .   S
    C2365  C2364     1.41158      .   S
    C668   C667      1.41140      .   S
    C2173  C1134     1.40950      .   S
    C2173  C2175     1.41067      .   S
    C2016  C1386     1.40950      .   S
    C2016  C2018     1.41100      .   S
    C1386  C1388     1.41067      .   S
    C1134  C1136     1.41100      .   S
    C1575  C866      1.40950      .   S
    C1575  C1577     1.41084      .   S
    C866   C868      1.41084      .   S
    C1399  C1398     1.40693      .   S
    C2186  C2185     1.40693      .   S
    C2029  C2028     1.40693      .   S
    C1147  C1146     1.40693      .   S
    C879   C878      1.40693      .   S
    C1588  C1587     1.40693      .   S
    C3278  O92       1.26845      .   S
    C3278  O2321     1.26845      .   S
    C3288  O2825     1.26845      .   S
    C3288  O427      1.26845      .   S
    C3298  O750      1.26845      .   S
    C3298  O2573     1.26845      .   S
    O1161  C1135     1.27399      .   S
    O806   C1576     1.27399      .   S
    O2200  C2174     1.27399      .   S
    O1035  C2017     1.27399      .   S
    O893   C867      1.27399      .   S
    O1413  C1387     1.27399      .   S
    O807   C2867     1.27492      .   S
    O2201  C2363     1.27509      .   S
    O1036  C2615     1.27522      .   S
    O894   C666      1.27492      .   S
    O1414  C8        1.27509      .   S
    O1162  C469      1.27522      .   S
    C3128  C2878     1.40868      .   S
    C3128  C480      1.40922      .   S
    C3065  C19       1.40896      .   S
    C3065  C2374     1.40896      .   S
    C3155  C2626     1.40922      .   S
    C3155  C677      1.40868      .   S
    H260   C480      1.08260      .   S
    H2916  C2878     1.08260      .   S
    H2412  C2374     1.08260      .   S
    H2664  C2626     1.08260      .   S
    H715   C677      1.08260      .   S
    H57    C19       1.08260      .   S
    C19    C20       1.40693      .   S
    C2626  C2627     1.40693      .   S
    C2374  C2375     1.40693      .   S
    C677   C678      1.40693      .   S
    C2878  C2879     1.40693      .   S
    C480   C481      1.40693      .   S
    C470   C469      1.51070      .   S
    C470   C468      1.41100      .   S
    C667   C666      1.51132      .   S
    C667   C665      1.41067      .   S
    C2868  C2867     1.51132      .   S
    C2868  C2866     1.41067      .   S
    C2616  C2615     1.51070      .   S
    C2616  C2614     1.41100      .   S
    C9     C8        1.51096      .   S
    C9     C7        1.41084      .   S
    C2364  C2363     1.51096      .   S
    C2364  C2362     1.41084      .   S
    C867   C868      1.51096  1_655   S
    C867   O693      1.27509      .   S
    C1576  C1577     1.51096  1_565   S
    C1576  O2894     1.27509      .   S
    C1387  C1388     1.51132      .   S
    C1387  O35       1.27492      .   S
    C2174  C2175     1.51132      .   S
    C2174  O2390     1.27492      .   S
    C1135  C1136     1.51070  1_565   S
    C1135  O496      1.27522      .   S
    C2017  C2018     1.51070  1_655   S
    C2017  O2642     1.27522      .   S
    C2867  O2893     1.27399      .   S
    C2363  O2389     1.27399      .   S
    C666   O692      1.27399      .   S
    C2615  O2641     1.27399      .   S
    C8     O34       1.27399      .   S
    C469   O495      1.27399      .   S
    C2018  C2019     1.41173      .   S
    C2175  C2176     1.41140      .   S
    C1388  C1389     1.41140      .   S
    C1577  C1578     1.41158      .   S
    C868   C869      1.41158      .   S
    C1136  C1137     1.41173      .   S
    C1146  H1184     1.08260      .   S
    C1146  C3218     1.40922      .   S
    C1398  H1436     1.08260      .   S
    C1398  C3254     1.40868      .   S
    C878   H916      1.08260      .   S
    C878   C3182     1.40896      .   S
    C1587  H1625     1.08260      .   S
    C1587  C3182     1.40896      .   S
    C2185  H2223     1.08260      .   S
    C2185  C3218     1.40868      .   S
    C2028  H1058     1.08260      .   S
    C2028  C3254     1.40922      .   S
    O1093  C3308     1.26845      .   S
    O2258  C3308     1.26845      .   S
    O1975  C3316     1.26845      .   S
    O1345  C3316     1.26845      .   S
    O1660  C3300     1.26845      .   S
    O825   C3300     1.26845      .   S
    C3182  C3181     1.50353      .   S
    C3254  C3253     1.50353      .   S
    C3218  C3217     1.50353      .   S
    C3300  C3301     1.40622      .   S
    C3308  C3309     1.40622      .   S
    C3316  C3317     1.40622      .   S
    C481   H261      1.08308      .   S
    C481   C3130     1.41318      .   S
    C2627  H2665     1.08308      .   S
    C2627  C3157     1.41318      .   S
    C2879  H2917     1.08308      .   S
    C2879  C3130     1.41318      .   S
    C20    H58       1.08308      .   S
    C20    C3067     1.41318      .   S
    C2375  H2413     1.08308      .   S
    C2375  C3067     1.41318      .   S
    C678   H716      1.08308      .   S
    C678   C3157     1.41318      .   S
    C2614  C665      1.40950      .   S
    C2614  H2658     1.08272      .   S
    C468   C2866     1.40950      .   S
    C468   H512      1.08272      .   S
    C2362  C7        1.40950      .   S
    C2362  H2406     1.08286      .   S
    C7     H51       1.08286      .   S
    C2866  H2910     1.08302      .   S
    C665   H709      1.08302      .   S
    C869   C1578     1.41076      .   S
    C869   H911      1.08252      .   S
    C1578  H1620     1.08252      .   S
    C1137  C2176     1.41076      .   S
    C1137  H1179     1.08252      .   S
    C1389  C2019     1.41076      .   S
    C1389  H1431     1.08252      .   S
    C2176  H2218     1.08252      .   S
    C2019  H1053     1.08252      .   S
    O695   C670      1.27239      .   S
    O37    C12       1.27276      .   S
    O2392  C2367     1.27276      .   S
    O2644  C2619     1.27276      .   S
    O2896  C2871     1.27239      .   S
    O498   C473      1.27276      .   S
    O1172  C486      1.26278      .   S
    O2211  C2380     1.26278      .   S
    O1046  C2632     1.26278      .   S
    O1424  C25       1.26278      .   S
    O904   C683      1.26278      .   S
    O817   C2884     1.26278      .   S
    C3067  C3066     1.42548      .   S
    C3130  C3129     1.42548      .   S
    C3157  C3156     1.42548      .   S
    O2323  C3071     1.26804      .   S
    O94    C3071     1.26804      .   S
    O2575  C3161     1.26848      .   S
    O752   C3161     1.26793      .   S
    O429   C3116     1.26848      .   S
    O2827  C3116     1.26793      .   S
    H713   C675      1.08224      .   S
    H2410  C2372     1.08261      .   S
    H55    C17       1.08261      .   S
    H2662  C2624     1.08264      .   S
    H2914  C2876     1.08224      .   S
    H258   C478      1.08264      .   S
    C2380  O2399     1.27213      .   S
    C2380  C1153     1.48153      .   S
    C25    O44       1.27213      .   S
    C25    C2035     1.48153      .   S
    C683   O702      1.27271      .   S
    C683   C798      1.48129      .   S
    C2884  O2903     1.27271      .   S
    C2884  C885      1.48129      .   S
    C2632  O2651     1.27224      .   S
    C2632  C1405     1.48181      .   S
    C486   O505      1.27224      .   S
    C486   C2192     1.48181      .   S
    C670   O694      1.27495      .   S
    C670   C671      1.50873      .   S
    C2367  O2391     1.27495      .   S
    C2367  C2368     1.50873      .   S
    C473   O497      1.27495      .   S
    C473   C474      1.50873      .   S
    C12    O36       1.27495      .   S
    C12    C13       1.50873      .   S
    C2619  O2643     1.27495      .   S
    C2619  C2620     1.50873      .   S
    C2871  O2895     1.27495      .   S
    C2871  C2872     1.50873      .   S
    H1441  C1407     1.08338      .   S
    H1630  C800      1.08327      .   S
    H2228  C2194     1.08338      .   S
    H921   C887      1.08327      .   S
    H1189  C1155     1.08289      .   S
    H1063  C2037     1.08289      .   S
    C3317  C1316     1.40836      .   S
    C3317  C1946     1.40890      .   S
    C3309  C2229     1.40836      .   S
    C3309  C1064     1.40890      .   S
    C3301  C784      1.40880      .   S
    C3301  C1631     1.40880      .   S
    C3181  O899      1.27177      .   S
    C3181  O812      1.27177      .   S
    C3217  O2206     1.27123      .   S
    C3217  O1167     1.27233      .   S
    C3253  O1419     1.27123      .   S
    C3253  O1041     1.27233      .   S
    H2275  C2229     1.08350      .   S
    H1677  C1631     1.08337      .   S
    H1110  C1064     1.08295      .   S
    H1992  C1946     1.08295      .   S
    H1362  C1316     1.08350      .   S
    H842   C784      1.08337      .   S
    C3071  C3072     1.48126      .   S
    C3116  C3117     1.48055      .   S
    C3161  C3162     1.48055      .   S
    C2229  C1127     1.39567      .   S
    C784   C1568     1.39567      .   S
    C1316  C2009     1.39567      .   S
    C1946  C1379     1.39567      .   S
    C1064  C2166     1.39567      .   S
    C1631  C859      1.39567      .   S
    C1407  C1405     1.40860      .   S
    C1407  C1406     1.39027      .   S
    C2037  C2035     1.40878      .   S
    C2037  C2036     1.39027      .   S
    C887   C885      1.40817      .   S
    C887   C886      1.39027      .   S
    C800   C798      1.40817      .   S
    C800   C799      1.39027      .   S
    C1155  C1153     1.40878      .   S
    C1155  C1154     1.39027      .   S
    C2194  C2192     1.40860      .   S
    C2194  C2193     1.39027      .   S
    C17    C13       1.41033      .   S
    C17    C18       1.40647      .   S
    C675   C671      1.41033      .   S
    C675   C676      1.40647      .   S
    C2372  C2368     1.41033      .   S
    C2372  C2373     1.40647      .   S
    C478   C474      1.41033      .   S
    C478   C479      1.40647      .   S
    C2876  C2872     1.41033      .   S
    C2876  C2877     1.40647      .   S
    C2624  C2620     1.41033      .   S
    C2624  C2625     1.40647      .   S
    C1405  C1403     1.40426      .   S
    C885   C883      1.40426      .   S
    C2192  C2190     1.40426      .   S
    C798   C796      1.40426      .   S
    C1153  C1151     1.40426      .   S
    C2035  C2033     1.40426      .   S
    C2872  C2870     1.41150      .   S
    C13    C11       1.41116      .   S
    C671   C669      1.41150      .   S
    C2368  C2366     1.41116      .   S
    C474   C472      1.41110      .   S
    C2620  C2618     1.41110      .   S
    C3129  O502      1.27301      .   S
    C3129  O2900     1.27301      .   S
    C3066  O2396     1.27301      .   S
    C3066  O41       1.27301      .   S
    C3156  O699      1.27301      .   S
    C3156  O2648     1.27301      .   S
    H920   C886      1.08353      .   S
    H1440  C1406     1.08312      .   S
    H1062  C2036     1.08292      .   S
    H1629  C799      1.08353      .   S
    H1188  C1154     1.08292      .   S
    H2227  C2193     1.08312      .   S
    H2411  C2373     1.08289      .   S
    H2915  C2877     1.08230      .   S
    H259   C479      1.08243      .   S
    H56    C18       1.08289      .   S
    H2663  C2625     1.08243      .   S
    H714   C676      1.08230      .   S
    C1154  C1150     1.40111      .   S
    C2193  C2189     1.40062      .   S
    C799   C795      1.40076      .   S
    C2036  C2032     1.40111      .   S
    C886   C882      1.40076      .   S
    C1406  C1402     1.40062      .   S
    C3162  C723      1.40611      .   S
    C3162  C2546     1.40557      .   S
    C3072  C2294     1.40567      .   S
    C3072  C65       1.40567      .   S
    C3117  C394      1.40557      .   S
    C3117  C2798     1.40611      .   S
    H769   C723      1.08338      .   S
    H2340  C2294     1.08338      .   S
    H446   C394      1.08338      .   S
    H2844  C2798     1.08338      .   S
    H2592  C2546     1.08338      .   S
    H114   C65       1.08338      .   S
    C676   C674      1.41009      .   S
    C2877  C2875     1.41009      .   S
    C2373  C2371     1.41009      .   S
    C2625  C2623     1.41009      .   S
    C479   C477      1.41009      .   S
    C18    C16       1.41009      .   S
    C1403  H1439     1.08314      .   S
    C1403  C1400     1.40238      .   S
    C1151  H1187     1.08334      .   S
    C1151  C1148     1.40238      .   S
    C796   H1628     1.08273      .   S
    C796   C1589     1.40238      .   S
    C2033  H1061     1.08334      .   S
    C2033  C2030     1.40238      .   S
    C883   H919      1.08273      .   S
    C883   C880      1.40238      .   S
    C2190  H2226     1.08314      .   S
    C2190  C2187     1.40238      .   S
    C1379  H1425     1.08295      .   S
    C1379  C3319     1.40890      .   S
    C1127  H1173     1.08350      .   S
    C1127  C3311     1.40836      .   S
    C2166  H2212     1.08295      .   S
    C2166  C3311     1.40890      .   S
    C859   H905      1.08308      .   S
    C859   C3303     1.40848      .   S
    C2009  H1047     1.08350      .   S
    C2009  C3319     1.40836      .   S
    C1568  H818      1.08308      .   S
    C1568  C3303     1.40848      .   S
    C669   H711      1.08234      .   S
    C669   C672      1.41201      .   S
    C2870  H2912     1.08234      .   S
    C2870  C2873     1.41201      .   S
    C2618  H2660     1.08234      .   S
    C2618  C2621     1.41201      .   S
    C11    H53       1.08234      .   S
    C11    C14       1.41201      .   S
    C2366  H2408     1.08234      .   S
    C2366  C2369     1.41201      .   S
    C472   H514      1.08234      .   S
    C472   C475      1.41201      .   S
    C394   C393      1.39584      .   S
    C723   C722      1.39584      .   S
    C2294  C2293     1.39584      .   S
    C2798  C2797     1.39584      .   S
    C2546  C2545     1.39584      .   S
    C65    C64       1.39584      .   S
    C882   C880      1.41016      .   S
    C882   C881      1.47969  1_455   S
    C1402  C1400     1.41016      .   S
    C1402  C1401     1.47969      .   S
    C1150  C1148     1.41016      .   S
    C1150  C1149     1.47969  1_545   S
    C2032  C2030     1.41016      .   S
    C2032  C2031     1.47969  1_455   S
    C2189  C2187     1.41016      .   S
    C2189  C2188     1.47969      .   S
    C795   C1589     1.41016      .   S
    C795   C1590     1.47969  1_545   S
    O1170  C2188     1.27038      .   S
    O815   C881      1.26993      .   S
    O1044  C1401     1.27038      .   S
    O902   C1590     1.26993      .   S
    O1422  C2031     1.27049      .   S
    O2209  C1149     1.27049      .   S
    C1589  H1627     1.08317  1_545   S
    C2187  H2225     1.08330      .   S
    C2030  H1060     1.08281  1_455   S
    C1400  H1438     1.08330      .   S
    C880   H918      1.08317  1_455   S
    C1148  H1186     1.08281  1_545   S
    C3311  C3310     1.40622      .   S
    C3303  C3302     1.40622      .   S
    C3319  C3318     1.40622      .   S
    C2623  C2621     1.41150      .   S
    C2623  C2622     1.50834      .   S
    C2875  C2873     1.41161      .   S
    C2875  C2874     1.50834      .   S
    C2371  C2369     1.41102      .   S
    C2371  C2370     1.50834      .   S
    C16    C14       1.41102      .   S
    C16    C15       1.50834      .   S
    C477   C475      1.41150      .   S
    C477   C476      1.50834      .   S
    C674   C672      1.41161      .   S
    C674   C673      1.50834      .   S
    C2873  H2913     1.08218      .   S
    C14    H54       1.08292      .   S
    C672   H712      1.08218      .   S
    C2369  H2409     1.08292      .   S
    C2621  H2661     1.08299      .   S
    C475   H515      1.08299      .   S
    C881   O901      1.26639      .   S
    C1401  O1421     1.26629      .   S
    C1149  O1169     1.26672      .   S
    C1590  O814      1.26639      .   S
    C2188  O2208     1.26629      .   S
    C2031  O1043     1.26672      .   S
    O802   C3177     1.26899      .   S
    O889   C3177     1.26899      .   S
    O2196  C3213     1.26899      .   S
    O2039  C3249     1.26899      .   S
    O1157  C3213     1.26899      .   S
    O1409  C3249     1.26899      .   S
    C64    H113      1.08306      .   S
    C64    C3070     1.40603      .   S
    C2545  H2591     1.08294      .   S
    C2545  C3160     1.40603      .   S
    C393   H445      1.08294      .   S
    C393   C3115     1.40603      .   S
    C722   H768      1.08349      .   S
    C722   C3160     1.40603      .   S
    C2293  H2339     1.08306      .   S
    C2293  C3070     1.40603      .   S
    C2797  H2843     1.08349      .   S
    C2797  C3115     1.40603      .   S
    C3249  C3250     1.48115      .   S
    C3213  C3214     1.48115      .   S
    C3177  C3178     1.48115      .   S
    O2394  C2370     1.27227      .   S
    O500   C476      1.27273      .   S
    O39    C15       1.27227      .   S
    O2646  C2622     1.27273      .   S
    O2898  C2874     1.27285      .   S
    O697   C673      1.27285      .   S
    C2874  O2897     1.27469      .   S
    C476   O499      1.27469      .   S
    C15    O38       1.27469      .   S
    C2622  O2645     1.27469      .   S
    C673   O696      1.27469      .   S
    C2370  O2393     1.27469      .   S
    C3250  C2010     1.40603      .   S
    C3250  C1380     1.40603      .   S
    C3214  C2167     1.40603      .   S
    C3214  C1128     1.40603      .   S
    C3178  C1569     1.40603      .   S
    C3178  C860      1.40603      .   S
    H1174  C1128     1.08349      .   S
    H1426  C1380     1.08294      .   S
    H1048  C2010     1.08349      .   S
    H1615  C1569     1.08296      .   S
    H2213  C2167     1.08294      .   S
    H906   C860      1.08296      .   S
    C2010  C2011     1.39584      .   S
    C1569  C1570     1.39584      .   S
    C1380  C1381     1.39584      .   S
    C2167  C2168     1.39584      .   S
    C1128  C1129     1.39584      .   S
    C860   C861      1.39584      .   S
    C3302  O888      1.26845      .   S
    C3302  O801      1.26845      .   S
    C3310  O1156     1.26845      .   S
    C3310  O2195     1.26845      .   S
    C3318  O1408     1.26845      .   S
    C3318  O2038     1.26845      .   S
    C3070  C3069     1.48115      .   S
    C3160  C3159     1.48115      .   S
    C3115  C3114     1.48115      .   S
    C1381  H1427     1.08338      .   S
    C1381  C3252     1.40557      .   S
    C2168  H2214     1.08338      .   S
    C2168  C3216     1.40557      .   S
    C1129  H1175     1.08338      .   S
    C1129  C3216     1.40611      .   S
    C2011  H1049     1.08338      .   S
    C2011  C3252     1.40611      .   S
    C1570  H1616     1.08338      .   S
    C1570  C3180     1.40558      .   S
    C861   H907      1.08338      .   S
    C861   C3180     1.40558      .   S
    O107   C3075     1.27301      .   S
    O2333  C3075     1.27301      .   S
    O2837  C3120     1.27301      .   S
    O2585  C3165     1.27301      .   S
    O762   C3165     1.27301      .   S
    O439   C3120     1.27301      .   S
    C3075  C3076     1.42548      .   S
    C3165  C3166     1.42548      .   S
    C3120  C3121     1.42548      .   S
    C3180  C3179     1.48157      .   S
    C3252  C3251     1.48055      .   S
    C3216  C3215     1.48055      .   S
    O1411  C1383     1.27072      .   S
    O804   C1572     1.27101      .   S
    O2198  C2170     1.27072      .   S
    O1159  C1131     1.27083      .   S
    O891   C863      1.27101      .   S
    O1033  C2013     1.27083      .   S
    C3121  C2816     1.41318      .   S
    C3121  C418      1.41318      .   S
    C3076  C2312     1.41318      .   S
    C3076  C83       1.41318      .   S
    C3166  C2564     1.41318      .   S
    C3166  C741      1.41318      .   S
    H2602  C2564     1.08308      .   S
    H456   C418      1.08308      .   S
    H779   C741      1.08308      .   S
    H2350  C2312     1.08308      .   S
    H124   C83       1.08308      .   S
    H2854  C2816     1.08308      .   S
    C3215  O2197     1.26848      .   S
    C3215  O1158     1.26793      .   S
    C3251  O1032     1.26793      .   S
    C3251  O1410     1.26848      .   S
    C3179  O803      1.26797      .   S
    C3179  O890      1.26797      .   S
    C3159  O751      1.26899      .   S
    C3159  O2574     1.26899      .   S
    C3069  O2322     1.26899      .   S
    C3069  O93       1.26899      .   S
    C3114  O2826     1.26899      .   S
    C3114  O428      1.26899      .   S
    C2564  C2563     1.40693      .   S
    C2312  C2311     1.40693      .   S
    C741   C740      1.40693      .   S
    C2816  C2815     1.40693      .   S
    C418   C417      1.40693      .   S
    C83    C82       1.40693      .   S
    O760   C736      1.27273      .   S
    O437   C413      1.27285      .   S
    O2583  C2559     1.27285      .   S
    O2835  C2811     1.27273      .   S
    O2331  C2307     1.27252      .   S
    O105   C78       1.27252      .   S
    C2815  H2853     1.08260      .   S
    C2815  C3119     1.40922      .   S
    C740   H778      1.08260      .   S
    C740   C3164     1.40922      .   S
    C2311  H2349     1.08260      .   S
    C2311  C3074     1.40869      .   S
    C2563  H2601     1.08260      .   S
    C2563  C3164     1.40868      .   S
    C417   H455      1.08260      .   S
    C417   C3119     1.40868      .   S
    C82    H123      1.08260      .   S
    C82    C3074     1.40869      .   S
    H1236  C1190     1.08308      .   S
    H1803  C1757     1.08350      .   S
    H2149  C2103     1.08337      .   S
    H1488  C1442     1.08337      .   S
    H1866  C1820     1.08308      .   S
    H968   C922      1.08350      .   S
    C2013  O1412     1.26792      .   S
    C2013  C2014     1.49198      .   S
    C1131  O2199     1.26792      .   S
    C1131  C1132     1.49198      .   S
    C2170  O1160     1.26837      .   S
    C2170  C2171     1.49130      .   S
    C863   O805      1.26777      .   S
    C863   C864      1.49193      .   S
    C1572  O892      1.26777      .   S
    C1572  C1573     1.49193      .   S
    C1383  O1034     1.26837      .   S
    C1383  C1384     1.49130      .   S
    C3119  C3118     1.50353      .   S
    C3074  C3073     1.50353      .   S
    C3164  C3163     1.50353      .   S
    H1429  C1385     1.08261      .   S
    H1177  C1133     1.08261      .   S
    H909   C865      1.08261      .   S
    H1618  C1574     1.08261      .   S
    H2216  C2172     1.08261      .   S
    H1051  C2015     1.08261      .   S
    C3163  O761      1.27233      .   S
    C3163  O2584     1.27123      .   S
    C3118  O2836     1.27233      .   S
    C3118  O438      1.27123      .   S
    C3073  O106      1.27227      .   S
    C3073  O2332     1.27227      .   S
    O2132  C3314     1.26845      .   S
    O1471  C3320     1.26845      .   S
    O1219  C3312     1.26845      .   S
    O1786  C3306     1.26845      .   S
    O1849  C3322     1.26845      .   S
    O951   C3304     1.26845      .   S
    C1820  C1442     1.39567      .   S
    C1820  C3323     1.40848      .   S
    C1442  C3321     1.40880      .   S
    C2103  C1190     1.39567      .   S
    C2103  C3315     1.40880      .   S
    C1757  C922      1.39567      .   S
    C1757  C3307     1.40836      .   S
    C1190  C3313     1.40848      .   S
    C922   C3305     1.40836      .   S
    C2559  O2582     1.27469      .   S
    C2559  C2560     1.50834      .   S
    C78    O104      1.27469      .   S
    C78    C79       1.50834      .   S
    C413   O436      1.27469      .   S
    C413   C414      1.50834      .   S
    C2307  O2330     1.27469      .   S
    C2307  C2308     1.50834      .   S
    C2811  O2834     1.27469      .   S
    C2811  C2812     1.50834      .   S
    C736   O759      1.27469      .   S
    C736   C737      1.50834      .   S
    H2342  C2298     1.08261      .   S
    H116   C69       1.08261      .   S
    H2846  C2802     1.08261      .   S
    H2594  C2550     1.08261      .   S
    H771   C727      1.08261      .   S
    H448   C199      1.08261      .   S
    C2015  C2014     1.40840      .   S
    C2015  C928      1.40510      .   S
    C865   C864      1.40821      .   S
    C865   C1826     1.40510      .   S
    C1574  C1573     1.40821      .   S
    C1574  C1196     1.40510      .   S
    C1385  C1384     1.40882      .   S
    C1385  C2109     1.40510      .   S
    C2172  C2171     1.40882      .   S
    C2172  C1448     1.40510      .   S
    C1133  C1132     1.40840      .   S
    C1133  C1763     1.40510      .   S
    C1132  C1130     1.40707      .   S
    C2014  C2012     1.40707      .   S
    C1384  C1382     1.40697      .   S
    C2171  C2169     1.40697      .   S
    C1573  C1571     1.40726      .   S
    C864   C862      1.40726      .   S
    H2600  C2562     1.08230      .   S
    H2852  C2814     1.08243      .   S
    H777   C739      1.08243      .   S
    H454   C416      1.08230      .   S
    H2348  C2310     1.08263      .   S
    H122   C81       1.08263      .   S
    O1788  C3197     1.26793      .   S
    O1851  C3269     1.26797      .   S
    O1221  C3224     1.26797      .   S
    O2134  C3233     1.26804      .   S
    O1473  C3260     1.26804      .   S
    O953   C3188     1.26793      .   S
    C3314  C3315     1.40622      .   S
    C3314  O1282     1.26845      .   S
    C3304  C3305     1.40622      .   S
    C3304  O1723     1.26845      .   S
    C3312  C3313     1.40622      .   S
    C3312  O2069     1.26845      .   S
    C3320  C3321     1.40622      .   S
    C3320  O1912     1.26845      .   S
    C3306  C3307     1.40622      .   S
    C3306  O1014     1.26845      .   S
    C3322  C3323     1.40622      .   S
    C3322  O1534     1.26845      .   S
    C3315  C1253     1.40880      .   S
    C3305  C1694     1.40890      .   S
    C3307  C985      1.40890      .   S
    C3323  C1505     1.40848      .   S
    C3321  C1883     1.40880      .   S
    C3313  C2040     1.40848      .   S
    C2802  C727      1.40510      .   S
    C2802  C2801     1.40840      .   S
    C69    C2550     1.40510      .   S
    C69    C68       1.40850      .   S
    C727   C726      1.40840      .   S
    C199   C2298     1.40510      .   S
    C199   C198      1.40882      .   S
    C2550  C2549     1.40882      .   S
    C2298  C2297     1.40850      .   S
    O753   C725      1.27083      .   S
    O2828  C2800     1.27083      .   S
    O95    C67       1.27040      .   S
    O2324  C2296     1.27040      .   S
    O2576  C2548     1.27072      .   S
    O430   C396      1.27072      .   S
    H1490  C1444     1.08338      .   S
    H1805  C1759     1.08338      .   S
    H1238  C1192     1.08338      .   S
    H1868  C1822     1.08338      .   S
    H970   C924      1.08338      .   S
    H2151  C2105     1.08338      .   S
    C2562  C2560     1.41009      .   S
    C2562  C2561     1.40647      .   S
    C81    C79       1.41009      .   S
    C81    C80       1.40647      .   S
    C739   C737      1.41009      .   S
    C739   C738      1.40647      .   S
    C416   C414      1.41009      .   S
    C416   C415      1.40647      .   S
    C2814  C2812     1.41009      .   S
    C2814  C2813     1.40647      .   S
    C2310  C2308     1.41009      .   S
    C2310  C2309     1.40647      .   S
    C79    C77       1.41131      .   S
    C2560  C2558     1.41161      .   S
    C2308  C2306     1.41131      .   S
    C737   C735      1.41150      .   S
    C414   C412      1.41161      .   S
    C2812  C2810     1.41150      .   S
    H1240  C1196     1.08261      .   S
    H1492  C1448     1.08261      .   S
    H2153  C2109     1.08261      .   S
    H1870  C1826     1.08261      .   S
    H972   C928      1.08261      .   S
    H1807  C1763     1.08261      .   S
    C1763  C1762     1.40840      .   S
    C1448  C1447     1.40850      .   S
    C928   C927      1.40840      .   S
    C1196  C1195     1.40821      .   S
    C1826  C1825     1.40821      .   S
    C2109  C2108     1.40850      .   S
    C862   H908      1.08257      .   S
    C862   C1823     1.39819      .   S
    C2169  H2215     1.08257      .   S
    C2169  C1445     1.39819      .   S
    C1571  H1617     1.08257      .   S
    C1571  C1193     1.39819      .   S
    C2012  H1050     1.08257      .   S
    C2012  C925      1.39819      .   S
    C1130  H1176     1.08257      .   S
    C1130  C1760     1.39819      .   S
    C1382  H1428     1.08257      .   S
    C1382  C2106     1.39819      .   S
    C1253  C2040     1.39567      .   S
    C1253  H1299     1.08337      .   S
    C2040  H2086     1.08308      .   S
    C1883  C1505     1.39567      .   S
    C1883  H1929     1.08337      .   S
    C1505  H1551     1.08308      .   S
    C985   C1694     1.39567      .   S
    C985   H1031     1.08295      .   S
    C1694  H1740     1.08295      .   S
    C2548  C2549     1.49130      .   S
    C2548  O754      1.26837      .   S
    C2296  C2297     1.49256      .   S
    C2296  O99       1.26808      .   S
    C725   C726      1.49198      .   S
    C725   O2577     1.26792      .   S
    C396   C198      1.49130      .   S
    C396   O2829     1.26837      .   S
    C67    C68       1.49256      .   S
    C67    O2325     1.26808      .   S
    C2800  C2801     1.49198      .   S
    C2800  O431      1.26792      .   S
    C3188  O1725     1.26848      .   S
    C3188  C3189     1.48055      .   S
    C3233  O1284     1.26804      .   S
    C3233  C3234     1.48126      .   S
    C3224  O2071     1.26797      .   S
    C3224  C3225     1.48157      .   S
    C3197  O1016     1.26848      .   S
    C3197  C3198     1.48055      .   S
    C3260  O1914     1.26804      .   S
    C3260  C3261     1.48126      .   S
    C3269  O1536     1.26797      .   S
    C3269  C3270     1.48157      .   S
    C68    C66       1.40665      .   S
    C198   C395      1.40697      .   S
    C726   C724      1.40707      .   S
    C2801  C2799     1.40707      .   S
    C2549  C2547     1.40697      .   S
    C2297  C2295     1.40665      .   S
    O109   C2314     1.27044      .   S
    O441   C2818     1.27049      .   S
    O2335  C85       1.27044      .   S
    O764   C2566     1.27038      .   S
    O2839  C420      1.27038      .   S
    O2587  C743      1.27049      .   S
    C1759  C3198     1.40611      .   S
    C1759  C1758     1.39584      .   S
    C2105  C3234     1.40567      .   S
    C2105  C2104     1.39584      .   S
    C1192  C3225     1.40558      .   S
    C1192  C1191     1.39584      .   S
    C1822  C3270     1.40558      .   S
    C1822  C1821     1.39584      .   S
    C1444  C3261     1.40567      .   S
    C1444  C1443     1.39584      .   S
    C924   C3189     1.40611      .   S
    C924   C923      1.39584      .   S
    H776   C738      1.08264      .   S
    H2851  C2813     1.08264      .   S
    H121   C80       1.08286      .   S
    H2599  C2561     1.08224      .   S
    H2347  C2309     1.08286      .   S
    H453   C415      1.08224      .   S
    C415   C411      1.41033      .   S
    C2561  C2557     1.41033      .   S
    C80    C76       1.41033      .   S
    C738   C734      1.41033      .   S
    C2309  C2305     1.41033      .   S
    C2813  C2809     1.41033      .   S
    H1804  C1758     1.08349      .   S
    H1237  C1191     1.08296      .   S
    H2150  C2104     1.08306      .   S
    H969   C923      1.08349      .   S
    H1489  C1443     1.08306      .   S
    H1867  C1821     1.08296      .   S
    C2810  H2850     1.08299      .   S
    C2810  C2807     1.41201      .   S
    C735   H775      1.08299      .   S
    C735   C732      1.41201      .   S
    C2306  H2346     1.08341      .   S
    C2306  C2303     1.41201      .   S
    C412   H452      1.08218      .   S
    C412   C409      1.41201      .   S
    C77    H120      1.08341      .   S
    C77    C74       1.41201      .   S
    C2558  H2598     1.08218      .   S
    C2558  C2555     1.41201      .   S
    C2108  C2106     1.40665      .   S
    C2108  C2107     1.49256      .   S
    C1762  C1760     1.40707      .   S
    C1762  C1761     1.49198      .   S
    C1195  C1193     1.40726      .   S
    C1195  C1194     1.49193      .   S
    C927   C925      1.40707      .   S
    C927   C926      1.49198      .   S
    C1825  C1823     1.40726      .   S
    C1825  C1824     1.49193      .   S
    C1447  C1445     1.40665      .   S
    C1447  C1446     1.49256      .   S
    H782   C748      1.08292      .   S
    H2857  C2823     1.08292      .   S
    H2605  C2571     1.08312      .   S
    H2353  C2319     1.08312      .   S
    H131   C90       1.08312      .   S
    H459   C425      1.08312      .   S
    C1445  H1491     1.08257      .   S
    C1823  H1869     1.08257      .   S
    C2106  H2152     1.08257      .   S
    C1760  H1806     1.08257      .   S
    C1193  H1239     1.08257      .   S
    C925   H971      1.08257      .   S
    C3225  C2042     1.40558      .   S
    C3234  C1255     1.40567      .   S
    C3270  C1507     1.40558      .   S
    C3261  C1885     1.40567      .   S
    C3189  C1696     1.40557      .   S
    C3198  C987      1.40557      .   S
    C1443  C3259     1.40603      .   S
    C1758  C3196     1.40603      .   S
    C1191  C3223     1.40603      .   S
    C923   C3187     1.40603      .   S
    C2104  C3232     1.40603      .   S
    C1821  C3268     1.40603      .   S
    C395   C2295     1.39819      .   S
    C395   H447      1.08257      .   S
    C724   C2799     1.39819      .   S
    C724   H770      1.08257      .   S
    C2295  H2341     1.08257      .   S
    C66    C2547     1.39819      .   S
    C66    H115      1.08257      .   S
    C2799  H2845     1.08257      .   S
    C2547  H2593     1.08257      .   S
    C420   O440      1.26629      .   S
    C420   C421      1.47969      .   S
    C2314  O2334     1.26682      .   S
    C2314  C2315     1.47969      .   S
    C2566  O2586     1.26629      .   S
    C2566  C2567     1.47969      .   S
    C743   O763      1.26672      .   S
    C743   C744      1.47969      .   S
    C85    O108      1.26682      .   S
    C85    C86       1.47969      .   S
    C2818  O2838     1.26672      .   S
    C2818  C2819     1.47969      .   S
    C2823  C2819     1.40111      .   S
    C2823  C2824     1.39027      .   S
    C2319  C2315     1.40113      .   S
    C2319  C2320     1.39027      .   S
    C90    C86       1.40113      .   S
    C90    C91       1.39027      .   S
    C2571  C2567     1.40062      .   S
    C2571  C2572     1.39027      .   S
    C425   C421      1.40062      .   S
    C425   C426      1.39027      .   S
    C748   C744      1.40111      .   S
    C748   C749      1.39027      .   S
    C411   C409      1.41150      .   S
    C411   C410      1.50873      .   S
    C2809  C2807     1.41110      .   S
    C2809  C2808     1.50873      .   S
    C734   C732      1.41110      .   S
    C734   C733      1.50873      .   S
    C2305  C2303     1.41088      .   S
    C2305  C2304     1.50873      .   S
    C2557  C2555     1.41150      .   S
    C2557  C2556     1.50873      .   S
    C76    C74       1.41088      .   S
    C76    C75       1.50873      .   S
    C2303  H2345     1.08234      .   S
    C74    H119      1.08234      .   S
    C2807  H2849     1.08234      .   S
    C732   H774      1.08234      .   S
    C409   H451      1.08234      .   S
    C2555  H2597     1.08234      .   S
    O954   C926      1.27083      .   S
    O1789  C1761     1.27083      .   S
    O1852  C1824     1.27101      .   S
    O2135  C2107     1.27040      .   S
    O1222  C1194     1.27101      .   S
    O1474  C1446     1.27040      .   S
    C2107  O1286     1.26808      .   S
    C1824  O1538     1.26777      .   S
    C1194  O2073     1.26777      .   S
    C1761  O1018     1.26792      .   S
    C926   O1727     1.26792      .   S
    C1446  O1916     1.26808      .   S
    H783   C749      1.08289      .   S
    H460   C426      1.08338      .   S
    H2606  C2572     1.08338      .   S
    H132   C91       1.08287      .   S
    H2858  C2824     1.08289      .   S
    H2354  C2320     1.08287      .   S
    C744   C742      1.41016      .   S
    C421   C419      1.41016      .   S
    C2819  C2817     1.41016      .   S
    C86    C84       1.41016      .   S
    C2315  C2313     1.41016      .   S
    C2567  C2565     1.41016      .   S
    C987   H517      1.08338      .   S
    C987   C986      1.39584      .   S
    C1255  H1301     1.08338      .   S
    C1255  C1254     1.39584      .   S
    C1507  H1553     1.08338      .   S
    C1507  C1506     1.39584      .   S
    C1885  H1931     1.08338      .   S
    C1885  C1884     1.39584      .   S
    C2042  H2088     1.08338      .   S
    C2042  C2041     1.39584      .   S
    C1696  H1742     1.08338      .   S
    C1696  C1695     1.39584      .   S
    C3187  C1695     1.40603      .   S
    C3187  C3186     1.48115      .   S
    C3196  C986      1.40603      .   S
    C3196  C3195     1.48115      .   S
    C3223  C2041     1.40603      .   S
    C3223  C3222     1.48115      .   S
    C3232  C1254     1.40603      .   S
    C3232  C3231     1.48115      .   S
    C3259  C1884     1.40603      .   S
    C3259  C3258     1.48115      .   S
    C3268  C1506     1.40603      .   S
    C3268  C3267     1.48115      .   S
    C91    C89       1.40857      .   S
    C426   C424      1.40860      .   S
    C749   C747      1.40878      .   S
    C2572  C2570     1.40860      .   S
    C2824  C2822     1.40878      .   S
    C2320  C2318     1.40857      .   S
    O1472  C3258     1.26899      .   S
    O952   C3186     1.26899      .   S
    O1787  C3195     1.26899      .   S
    O1850  C3267     1.26899      .   S
    O1220  C3222     1.26899      .   S
    O2133  C3231     1.26899      .   S
    H1314  C1280     1.08312      .   S
    H1755  C1721     1.08312      .   S
    H1944  C1910     1.08312      .   S
    H530   C1012     1.08312      .   S
    H1566  C1532     1.08353      .   S
    H2101  C2067     1.08353      .   S
    O2329  C2304     1.27302      .   S
    O103   C75       1.27302      .   S
    O2581  C2556     1.27239      .   S
    O435   C410      1.27239      .   S
    O758   C733      1.27276      .   S
    O2833  C2808     1.27276      .   S
    H1567  C1533     1.08327      .   S
    H531   C1013     1.08338      .   S
    H1945  C1911     1.08287      .   S
    H1315  C1281     1.08287      .   S
    H2102  C2068     1.08327      .   S
    H1756  C1722     1.08338      .   S
    C410   O434      1.27495      .   S
    C733   O757      1.27495      .   S
    C2556  O2580     1.27495      .   S
    C2304  O2328     1.27495      .   S
    C75    O102      1.27495      .   S
    C2808  O2832     1.27495      .   S
    C1506  H1552     1.08296      .   S
    C1695  H1741     1.08294      .   S
    C1884  H1930     1.08306      .   S
    C1254  H1300     1.08306      .   S
    C986   H516      1.08294      .   S
    C2041  H2087     1.08296      .   S
    C3195  O1015     1.26899      .   S
    C3222  O2070     1.26899      .   S
    C3186  O1724     1.26899      .   S
    C3231  O1283     1.26899      .   S
    C3258  O1913     1.26899      .   S
    C3267  O1535     1.26899      .   S
    C1721  C1722     1.39027      .   S
    C1721  C1717     1.40062      .   S
    C1532  C1533     1.39027      .   S
    C1532  C1528     1.40076      .   S
    C1910  C1911     1.39027      .   S
    C1910  C1906     1.40113      .   S
    C2067  C2068     1.39027      .   S
    C2067  C2063     1.40076      .   S
    C1012  C1013     1.39027      .   S
    C1012  C1008     1.40062      .   S
    C1280  C1281     1.39027      .   S
    C1280  C1276     1.40113      .   S
    O965   C1716     1.27038      .   S
    O1485  C1905     1.27044      .   S
    O1233  C2062     1.26993      .   S
    O1800  C1007     1.27038      .   S
    O2146  C1275     1.27044      .   S
    O1863  C1527     1.26993      .   S
    C2068  C2066     1.40817      .   S
    C1533  C1531     1.40817      .   S
    C1722  C1720     1.40860      .   S
    C1013  C1011     1.40860      .   S
    C1911  C1909     1.40857      .   S
    C1281  C1279     1.40857      .   S
    C742   H780      1.08281      .   S
    C742   C745      1.40238      .   S
    C84    H125      1.08279      .   S
    C84    C87       1.40238      .   S
    C2817  H2855     1.08281      .   S
    C2817  C2820     1.40238      .   S
    C419   H457      1.08330      .   S
    C419   C422      1.40238      .   S
    C2565  H2603     1.08330      .   S
    C2565  C2568     1.40238      .   S
    C2313  H2351     1.08279      .   S
    C2313  C2316     1.40238      .   S
    C2822  C2820     1.40426      .   S
    C2822  C1215     1.48153      .   S
    C747   C745      1.40426      .   S
    C747   C1845     1.48153      .   S
    C424   C422      1.40426      .   S
    C424   C1782     1.48181      .   S
    C2318  C2316     1.40426      .   S
    C2318  C1467     1.48126      .   S
    C2570  C2568     1.40426      .   S
    C2570  C947      1.48181      .   S
    C89    C87       1.40426      .   S
    C89    C2128     1.48126      .   S
    O2841  C1782     1.26278      .   S
    O2589  C1845     1.26278      .   S
    O2337  C2128     1.26278      .   S
    O111   C1467     1.26278      .   S
    O766   C947      1.26278      .   S
    O443   C1215     1.26278      .   S
    C1527  C1528     1.47969  1_565   S
    C1527  O1547     1.26639      .   S
    C1007  C1008     1.47969      .   S
    C1007  O1027     1.26629      .   S
    C2062  C2063     1.47969  1_655   S
    C2062  O2082     1.26639      .   S
    C1905  C1906     1.47969  1_565   S
    C1905  O1925     1.26682      .   S
    C1275  C1276     1.47969  1_655   S
    C1275  O1295     1.26682      .   S
    C1716  C1717     1.47969      .   S
    C1716  O1736     1.26629      .   S
    H1877  C1839     1.08260      .   S
    H1247  C1209     1.08260      .   S
    H2160  C2122     1.08260      .   S
    H1499  C1461     1.08260      .   S
    H979   C941      1.08260      .   S
    H1814  C1776     1.08260      .   S
    C1276  C1274     1.41016      .   S
    C1717  C1715     1.41016      .   S
    C2063  C2061     1.41016      .   S
    C1528  C1526     1.41016      .   S
    C1906  C1904     1.41016      .   S
    C1008  C1006     1.41016      .   S
    O1860  C3271     1.27177      .   S
    O2143  C3235     1.27227      .   S
    O1230  C3226     1.27177      .   S
    O1797  C3199     1.27233      .   S
    O962   C3190     1.27233      .   S
    O1482  C3262     1.27227      .   S
    O1865  C2569     1.26278      .   S
    O1235  C423      1.26278      .   S
    O967   C746      1.26278      .   S
    O1802  C2821     1.26278      .   S
    O2148  C2317     1.26278      .   S
    O1487  C88       1.26278      .   S
    C87    H126      1.08313      .   S
    C745   H781      1.08334      .   S
    C422   H458      1.08314      .   S
    C2316  H2352     1.08313      .   S
    C2568  H2604     1.08314      .   S
    C2820  H2856     1.08334      .   S
    C1279  C2317     1.48126      .   S
    C1279  C1277     1.40426      .   S
    C1011  C2821     1.48181      .   S
    C1011  C1009     1.40426      .   S
    C1720  C746      1.48181      .   S
    C1720  C1718     1.40426      .   S
    C2066  C423      1.48129      .   S
    C2066  C2064     1.40426      .   S
    C1909  C88       1.48126      .   S
    C1909  C1907     1.40426      .   S
    C1531  C2569     1.48129      .   S
    C1531  C1529     1.40426      .   S
    C1845  O1864     1.27213      .   S
    C947   O966      1.27224      .   S
    C2128  O2147     1.27227      .   S
    C1467  O1486     1.27227      .   S
    C1215  O1234     1.27213      .   S
    C1782  O1801     1.27224      .   S
    H977   C939      1.08264      .   S
    H2158  C2120     1.08286      .   S
    H1875  C1837     1.08261      .   S
    H1245  C1207     1.08261      .   S
    H1497  C1459     1.08286      .   S
    H1812  C1774     1.08264      .   S
    C2317  O2336     1.27227      .   S
    C746   O765      1.27224      .   S
    C88    O110      1.27227      .   S
    C2821  O2840     1.27224      .   S
    C2569  O2588     1.27271      .   S
    C423   O442      1.27271      .   S
    H1500  C1462     1.08308      .   S
    H980   C942      1.08308      .   S
    H1815  C1777     1.08308      .   S
    H2161  C2123     1.08308      .   S
    H1248  C1210     1.08308      .   S
    H1878  C1840     1.08308      .   S
    C1461  C1462     1.40693      .   S
    C1461  C3263     1.40869      .   S
    C2122  C2123     1.40693      .   S
    C2122  C3236     1.40869      .   S
    C1209  C1210     1.40693      .   S
    C1209  C3227     1.40896      .   S
    C1839  C1840     1.40693      .   S
    C1839  C3272     1.40896      .   S
    C941   C942      1.40693      .   S
    C941   C3191     1.40922      .   S
    C1776  C1777     1.40693      .   S
    C1776  C3200     1.40922      .   S
    C2061  C2064     1.40238      .   S
    C2061  H2099     1.08317  1_455   S
    C1526  C1529     1.40238      .   S
    C1526  H1564     1.08317  1_545   S
    C1715  C1718     1.40238      .   S
    C1715  H1753     1.08330      .   S
    C1274  C1277     1.40238      .   S
    C1274  H1312     1.08279  1_455   S
    C1006  C1009     1.40238      .   S
    C1006  H528      1.08330      .   S
    C1904  C1907     1.40238      .   S
    C1904  H1942     1.08279  1_545   S
    H1743  C1697     1.08257      .   S
    H1302  C1256     1.08257      .   S
    H1932  C1886     1.08257      .   S
    H518   C988      1.08257      .   S
    H1554  C1508     1.08257      .   S
    H2089  C2043     1.08257      .   S
    O1227  C1202     1.27276      .   S
    O2140  C2115     1.27302      .   S
    O1857  C1832     1.27276      .   S
    O1479  C1454     1.27302      .   S
    O959   C934      1.27276      .   S
    O1794  C1769     1.27276      .   S
    O1790  C989      1.26837      .   S
    O1853  C1509     1.26777      .   S
    O2136  C1257     1.26808      .   S
    O1223  C2044     1.26777      .   S
    O955   C1698     1.26837      .   S
    O1475  C1887     1.26808      .   S
    C1907  H1943     1.08313      .   S
    C2064  H2100     1.08273      .   S
    C1529  H1565     1.08273      .   S
    C1718  H1754     1.08314      .   S
    C1009  H529      1.08314      .   S
    C1277  H1313     1.08313      .   S
    H1876  C1838     1.08289      .   S
    H978   C940      1.08243      .   S
    H2159  C2121     1.08263      .   S
    H1498  C1460     1.08263      .   S
    H1813  C1775     1.08243      .   S
    H1246  C1208     1.08289      .   S
    C3271  C3272     1.50353      .   S
    C3271  O1545     1.27177      .   S
    C3262  C3263     1.50353      .   S
    C3262  O1923     1.27227      .   S
    C3235  C3236     1.50353      .   S
    C3235  O1293     1.27227      .   S
    C3190  C3191     1.50353      .   S
    C3190  O1734     1.27123      .   S
    C3226  C3227     1.50353      .   S
    C3226  O2080     1.27177      .   S
    C3199  C3200     1.50353      .   S
    C3199  O1025     1.27123      .   S
    C1697  C1256     1.39819      .   S
    C1697  C1699     1.40697      .   S
    C1508  C2043     1.39819      .   S
    C1508  C1510     1.40726      .   S
    C988   C1886     1.39819      .   S
    C988   C990      1.40697      .   S
    C2043  C2045     1.40726      .   S
    C1256  C1258     1.40665      .   S
    C1886  C1888     1.40665      .   S
    C1777  C3202     1.41318      .   S
    C1840  C3274     1.41318      .   S
    C1210  C3229     1.41318      .   S
    C2123  C3238     1.41318      .   S
    C1462  C3265     1.41318      .   S
    C942   C3193     1.41318      .   S
    C989   C990      1.49130      .   S
    C989   O1017     1.27072      .   S
    C2044  C2045     1.49193      .   S
    C2044  O2072     1.27101      .   S
    C1698  C1699     1.49130      .   S
    C1698  O1726     1.27072      .   S
    C1887  C1888     1.49256      .   S
    C1887  O1915     1.27040      .   S
    C1509  C1510     1.49193      .   S
    C1509  O1537     1.27101      .   S
    C1257  C1258     1.49256      .   S
    C1257  O1285     1.27040      .   S
    C1888  C1889     1.40850      .   S
    C1699  C1700     1.40882      .   S
    C1510  C1511     1.40821      .   S
    C990   C991      1.40882      .   S
    C2045  C2046     1.40821      .   S
    C1258  C1259     1.40850      .   S
    C1774  C1775     1.40647      .   S
    C1774  C1770     1.41033      .   S
    C1459  C1460     1.40647      .   S
    C1459  C1455     1.41033      .   S
    C939   C940      1.40647      .   S
    C939   C935      1.41033      .   S
    C1207  C1208     1.40647      .   S
    C1207  C1203     1.41033      .   S
    C2120  C2121     1.40647      .   S
    C2120  C2116     1.41033      .   S
    C1837  C1838     1.40647      .   S
    C1837  C1833     1.41033      .   S
    C3227  C2059     1.40896      .   S
    C3236  C1272     1.40869      .   S
    C3263  C1902     1.40869      .   S
    C3272  C1524     1.40896      .   S
    C3200  C1004     1.40868      .   S
    C3191  C1713     1.40868      .   S
    C1259  C1700     1.40510      .   S
    C1259  H1303     1.08261      .   S
    C1700  H1744     1.08261      .   S
    C1511  C2046     1.40510      .   S
    C1511  H1555     1.08261      .   S
    C2046  H2090     1.08261      .   S
    C1889  C991      1.40510      .   S
    C1889  H1933     1.08261      .   S
    C991   H519      1.08261      .   S
    C1208  C1206     1.41009      .   S
    C1460  C1458     1.41009      .   S
    C1838  C1836     1.41009      .   S
    C2121  C2119     1.41009      .   S
    C1775  C1773     1.41009      .   S
    C940   C938      1.41009      .   S
    C1832  C1833     1.50873      .   S
    C1832  O1856     1.27495      .   S
    C1202  C1203     1.50873      .   S
    C1202  O1226     1.27495      .   S
    C1769  C1770     1.50873      .   S
    C1769  O1793     1.27495      .   S
    C934   C935      1.50873      .   S
    C934   O958      1.27495      .   S
    C1454  C1455     1.50873      .   S
    C1454  O1478     1.27495      .   S
    C2115  C2116     1.50873      .   S
    C2115  O2139     1.27495      .   S
    H117   C70       1.08332      .   S
    H2595  C2551     1.08302      .   S
    H2847  C2803     1.08272      .   S
    H2343  C2299     1.08332      .   S
    H449   C200      1.08302      .   S
    H772   C728      1.08272      .   S
    O755   C729      1.27399      .   S
    O2326  C2300     1.27399      .   S
    O432   C201      1.27399      .   S
    O100   C71       1.27399      .   S
    O2830  C2804     1.27399      .   S
    O2578  C2552     1.27399      .   S
    O1483  C3264     1.27301      .   S
    O1861  C3273     1.27301      .   S
    O1798  C3201     1.27301      .   S
    O963   C3192     1.27301      .   S
    O1231  C3228     1.27301      .   S
    O2144  C3237     1.27301      .   S
    C728   C2551     1.40950      .   S
    C728   C730      1.41100      .   S
    C2299  C70       1.40950      .   S
    C2299  C2301     1.41127      .   S
    C2551  C2553     1.41067      .   S
    C200   C2803     1.40950      .   S
    C200   C202      1.41067      .   S
    C2803  C2805     1.41100      .   S
    C70    C72       1.41127      .   S
    C1770  C1768     1.41110      .   S
    C1203  C1201     1.41116      .   S
    C1455  C1453     1.41088      .   S
    C935   C933      1.41110      .   S
    C1833  C1831     1.41116      .   S
    C2116  C2114     1.41088      .   S
    O1799  C1779     1.26672      .   S
    O1862  C1842     1.26639      .   S
    O964   C944      1.26672      .   S
    O1484  C1464     1.26682      .   S
    O2145  C2125     1.26682      .   S
    O1232  C1212     1.26639      .   S
    C3202  C3201     1.42548      .   S
    C3202  C1005     1.41318      .   S
    C3238  C3237     1.42548      .   S
    C3238  C1273     1.41318      .   S
    C3193  C3192     1.42548      .   S
    C3193  C1714     1.41318      .   S
    C3229  C3228     1.42548      .   S
    C3229  C2060     1.41318      .   S
    C3265  C3264     1.42548      .   S
    C3265  C1903     1.41318      .   S
    C3274  C3273     1.42548      .   S
    C3274  C1525     1.41318      .   S
    O1229  C1205     1.27227      .   S
    O1796  C1772     1.27273      .   S
    O2142  C2118     1.27252      .   S
    O1481  C1457     1.27252      .   S
    O961   C937      1.27273      .   S
    O1859  C1835     1.27227      .   S
    C201   C202      1.51132      .   S
    C201   O1225     1.27492      .   S
    C71    C72       1.51099      .   S
    C71    O1477     1.27552      .   S
    C2804  C2805     1.51070      .   S
    C2804  O1792     1.27522      .   S
    C2552  C2553     1.51132      .   S
    C2552  O1855     1.27492      .   S
    C729   C730      1.51070      .   S
    C729   O957      1.27522      .   S
    C2300  C2301     1.51099      .   S
    C2300  O2138     1.27552      .   S
    C2805  C2806     1.41173      .   S
    C2301  C2302     1.41113      .   S
    C730   C731      1.41173      .   S
    C202   C203      1.41140      .   S
    C2553  C2554     1.41140      .   S
    C72    C73       1.41113      .   S
    C1713  C1714     1.40693      .   S
    C1713  H1751     1.08260      .   S
    C2059  C2060     1.40693      .   S
    C2059  H2097     1.08260      .   S
    C1524  C1525     1.40693      .   S
    C1524  H1562     1.08260      .   S
    C1272  C1273     1.40693      .   S
    C1272  H1310     1.08260      .   S
    C1004  C1005     1.40693      .   S
    C1004  H526      1.08260      .   S
    C1902  C1903     1.40693      .   S
    C1902  H1940     1.08260      .   S
    C3273  O1546     1.27301      .   S
    C3237  O1294     1.27301      .   S
    C3192  O1735     1.27301      .   S
    C3228  O2081     1.27301      .   S
    C3264  O1924     1.27301      .   S
    C3201  O1026     1.27301      .   S
    C1458  C1457     1.50834      .   S
    C1458  C1456     1.41131      .   S
    C938   C937      1.50834      .   S
    C938   C936      1.41150      .   S
    C1206  C1205     1.50834      .   S
    C1206  C1204     1.41102      .   S
    C1836  C1835     1.50834      .   S
    C1836  C1834     1.41102      .   S
    C1773  C1772     1.50834      .   S
    C1773  C1771     1.41150      .   S
    C2119  C2118     1.50834      .   S
    C2119  C2117     1.41131      .   S
    O2083  C1212     1.26993      .   S
    O1548  C1842     1.26993      .   S
    O1028  C1779     1.27049      .   S
    O1296  C2125     1.27044      .   S
    O1926  C1464     1.27044      .   S
    O1737  C944      1.27049      .   S
    C2554  C731      1.41076      .   S
    C2554  H2596     1.08252      .   S
    C73    C2302     1.41076      .   S
    C73    H118      1.08252      .   S
    C731   H773      1.08252      .   S
    C203   C2806     1.41076      .   S
    C203   H450      1.08252      .   S
    C2806  H2848     1.08252      .   S
    C2302  H2344     1.08252      .   S
    C1525  H1563     1.08308      .   S
    C1714  H1752     1.08308      .   S
    C1273  H1311     1.08308      .   S
    C2060  H2098     1.08308      .   S
    C1005  H527      1.08308      .   S
    C1903  H1941     1.08308      .   S
    O433   C1198     1.27509      .   S
    O2327  C2111     1.27552      .   S
    O756   C930      1.27522      .   S
    O2579  C1828     1.27509      .   S
    O2831  C1765     1.27522      .   S
    O101   C1450     1.27552      .   S
    C1831  C1834     1.41201      .   S
    C1831  H1873     1.08234      .   S
    C2114  C2117     1.41201      .   S
    C2114  H2156     1.08234      .   S
    C933   C936      1.41201      .   S
    C933   H975      1.08234      .   S
    C1453  C1456     1.41201      .   S
    C1453  H1495     1.08234      .   S
    C1768  C1771     1.41201      .   S
    C1768  H1810     1.08234      .   S
    C1201  C1204     1.41201      .   S
    C1201  H1243     1.08234      .   S
    O2137  C2111     1.27399      .   S
    O956   C930      1.27399      .   S
    O1791  C1765     1.27399      .   S
    O1476  C1450     1.27399      .   S
    O1854  C1828     1.27399      .   S
    O1224  C1198     1.27399      .   S
