# CIF file generated by openbabel 2.4.90, see http://openbabel.sf.net
data_I
_chemical_name_common ''
_cell_length_a 62.8399
_cell_length_b 62.8399
_cell_length_c 62.8399
_cell_angle_alpha 60
_cell_angle_beta 60
_cell_angle_gamma 60
_space_group_name_H-M_alt 'P 1'
_space_group_name_Hall 'P 1'
loop_
    _symmetry_equiv_pos_as_xyz
    x,y,z
loop_
    _atom_site_label
    _atom_site_type_symbol
    _atom_site_fract_x
    _atom_site_fract_y
    _atom_site_fract_z
    _atom_site_occupancy
    Cr0     Cr   0.30656   0.35963   0.53034   1.000
    Cr1     Cr   0.11423   0.28384   0.65770   1.000
    Cr2     Cr   0.28384   0.11423   0.94423   1.000
    Cr3     Cr   0.35963   0.30656   0.80348   1.000
    Cr4     Cr   0.65770   0.94423   0.11423   1.000
    Cr5     Cr   0.53034   0.80348   0.30656   1.000
    Cr6     Cr   0.94423   0.65770   0.28384   1.000
    Cr7     Cr   0.80348   0.53034   0.35963   1.000
    Cr8     Cr   0.65770   0.11423   0.28384   1.000
    Cr9     Cr   0.53034   0.30656   0.35963   1.000
    Cr10    Cr   0.94423   0.28384   0.11423   1.000
    Cr11    Cr   0.80348   0.35963   0.30656   1.000
    Cr12    Cr   0.11423   0.65770   0.94423   1.000
    Cr13    Cr   0.30656   0.53034   0.80348   1.000
    Cr14    Cr   0.28384   0.94423   0.65770   1.000
    Cr15    Cr   0.35963   0.80348   0.53034   1.000
    Cr16    Cr   0.28384   0.65770   0.11423   1.000
    Cr17    Cr   0.35963   0.53034   0.30656   1.000
    Cr18    Cr   0.11423   0.94423   0.28384   1.000
    Cr19    Cr   0.30656   0.80348   0.35963   1.000
    Cr20    Cr   0.94423   0.11423   0.65770   1.000
    Cr21    Cr   0.80348   0.30656   0.53034   1.000
    Cr22    Cr   0.65770   0.28384   0.94423   1.000
    Cr23    Cr   0.53034   0.35963   0.80348   1.000
    Cr24    Cr   0.13577   0.96616   0.30577   1.000
    Cr25    Cr   0.94344   0.89037   0.44652   1.000
    Cr26    Cr   0.96616   0.13577   0.59230   1.000
    Cr27    Cr   0.89037   0.94344   0.71966   1.000
    Cr28    Cr   0.59230   0.30577   0.96616   1.000
    Cr29    Cr   0.71966   0.44652   0.89037   1.000
    Cr30    Cr   0.30577   0.59230   0.13577   1.000
    Cr31    Cr   0.44652   0.71966   0.94344   1.000
    Cr32    Cr   0.59230   0.13577   0.30577   1.000
    Cr33    Cr   0.71966   0.94344   0.44652   1.000
    Cr34    Cr   0.30577   0.96616   0.59230   1.000
    Cr35    Cr   0.44652   0.89037   0.71966   1.000
    Cr36    Cr   0.13577   0.59230   0.96616   1.000
    Cr37    Cr   0.94344   0.71966   0.89037   1.000
    Cr38    Cr   0.96616   0.30577   0.13577   1.000
    Cr39    Cr   0.89037   0.44652   0.94344   1.000
    Cr40    Cr   0.96616   0.59230   0.30577   1.000
    Cr41    Cr   0.89037   0.71966   0.44652   1.000
    Cr42    Cr   0.13577   0.30577   0.59230   1.000
    Cr43    Cr   0.94344   0.44652   0.71966   1.000
    Cr44    Cr   0.30577   0.13577   0.96616   1.000
    Cr45    Cr   0.44652   0.94344   0.89037   1.000
    Cr46    Cr   0.59230   0.96616   0.13577   1.000
    Cr47    Cr   0.71966   0.89037   0.94344   1.000
    Cr48    Cr   0.13577   0.96616   0.59230   1.000
    Cr49    Cr   0.94344   0.89037   0.71966   1.000
    Cr50    Cr   0.90935   0.12500   0.34065   1.000
    Cr51    Cr   0.62500   0.34065   0.12500   1.000
    Cr52    Cr   0.34065   0.62500   0.90935   1.000
    Cr53    Cr   0.62500   0.12500   0.90935   1.000
    Cr54    Cr   0.34065   0.90935   0.12500   1.000
    Cr55    Cr   0.12500   0.62500   0.34065   1.000
    Cr56    Cr   0.90935   0.34065   0.62500   1.000
    Cr57    Cr   0.90935   0.62500   0.12500   1.000
    Cr58    Cr   0.12500   0.34065   0.90935   1.000
    Cr59    Cr   0.34065   0.12500   0.62500   1.000
    Cr60    Cr   0.62500   0.90935   0.34065   1.000
    Cr61    Cr   0.22983   0.22983   0.77017   1.000
    Cr62    Cr   0.77017   0.77017   0.22983   1.000
    Cr63    Cr   0.77017   0.22983   0.22983   1.000
    Cr64    Cr   0.22983   0.77017   0.77017   1.000
    Cr65    Cr   0.22983   0.77017   0.22983   1.000
    Cr66    Cr   0.77017   0.22983   0.77017   1.000
    Cr67    Cr   0.02017   0.02017   0.47983   1.000
    Cr68    Cr   0.47983   0.47983   0.02017   1.000
    Cr69    Cr   0.47983   0.02017   0.47983   1.000
    Cr70    Cr   0.02017   0.47983   0.02017   1.000
    Cr71    Cr   0.02017   0.47983   0.47983   1.000
    Cr72    Cr   0.47983   0.02017   0.02017   1.000
    Cr73    Cr   0.23592   0.28896   0.73756   1.000
    Cr74    Cr   0.28896   0.23592   0.73756   1.000
    Cr75    Cr   0.96616   0.13577   0.30577   1.000
    Cr76    Cr   0.89037   0.94344   0.44652   1.000
    Cr77    Cr   0.59230   0.30577   0.13577   1.000
    Cr78    Cr   0.71966   0.44652   0.94344   1.000
    Cr79    Cr   0.30577   0.59230   0.96616   1.000
    Cr80    Cr   0.44652   0.71966   0.89037   1.000
    Cr81    Cr   0.59230   0.13577   0.96616   1.000
    Cr82    Cr   0.71966   0.94344   0.89037   1.000
    Cr83    Cr   0.30577   0.96616   0.13577   1.000
    Cr84    Cr   0.44652   0.89037   0.94344   1.000
    Cr85    Cr   0.13577   0.59230   0.30577   1.000
    Cr86    Cr   0.94344   0.71966   0.44652   1.000
    Cr87    Cr   0.96616   0.30577   0.59230   1.000
    Cr88    Cr   0.89037   0.44652   0.71966   1.000
    Cr89    Cr   0.96616   0.59230   0.13577   1.000
    Cr90    Cr   0.89037   0.71966   0.94344   1.000
    Cr91    Cr   0.13577   0.30577   0.96616   1.000
    Cr92    Cr   0.94344   0.44652   0.89037   1.000
    Cr93    Cr   0.30577   0.13577   0.59230   1.000
    Cr94    Cr   0.44652   0.94344   0.71966   1.000
    Cr95    Cr   0.59230   0.96616   0.30577   1.000
    Cr96    Cr   0.71966   0.89037   0.44652   1.000
    Cr97    Cr   0.11423   0.28384   0.94423   1.000
    Cr98    Cr   0.30656   0.35963   0.80348   1.000
    Cr99    Cr   0.28384   0.11423   0.65770   1.000
    Cr100   Cr   0.35963   0.30656   0.53034   1.000
    Cr101   Cr   0.65770   0.94423   0.28384   1.000
    Cr102   Cr   0.53034   0.80348   0.35963   1.000
    Cr103   Cr   0.94423   0.65770   0.11423   1.000
    Cr104   Cr   0.80348   0.53034   0.30656   1.000
    Cr105   Cr   0.65770   0.11423   0.94423   1.000
    Cr106   Cr   0.53034   0.30656   0.80348   1.000
    Cr107   Cr   0.94423   0.28384   0.65770   1.000
    Cr108   Cr   0.80348   0.35963   0.53034   1.000
    Cr109   Cr   0.11423   0.65770   0.28384   1.000
    Cr110   Cr   0.30656   0.53034   0.35963   1.000
    Cr111   Cr   0.28384   0.94423   0.11423   1.000
    Cr112   Cr   0.35963   0.80348   0.30656   1.000
    Cr113   Cr   0.28384   0.65770   0.94423   1.000
    Cr114   Cr   0.35963   0.53034   0.80348   1.000
    Cr115   Cr   0.11423   0.94423   0.65770   1.000
    Cr116   Cr   0.30656   0.80348   0.53034   1.000
    Cr117   Cr   0.94423   0.11423   0.28384   1.000
    Cr118   Cr   0.80348   0.30656   0.35963   1.000
    Cr119   Cr   0.65770   0.28384   0.11423   1.000
    Cr120   Cr   0.53034   0.35963   0.30656   1.000
    Cr121   Cr   0.41880   0.47185   0.47185   1.000
    Cr122   Cr   0.47185   0.41880   0.63750   1.000
    Cr123   Cr   0.47185   0.63750   0.41880   1.000
    Cr124   Cr   0.63750   0.47185   0.47185   1.000
    Cr125   Cr   0.47185   0.41880   0.47185   1.000
    Cr126   Cr   0.63750   0.47185   0.41880   1.000
    Cr127   Cr   0.41880   0.47185   0.63750   1.000
    Cr128   Cr   0.47185   0.63750   0.47185   1.000
    Cr129   Cr   0.47185   0.47185   0.41880   1.000
    Cr130   Cr   0.41880   0.63750   0.47185   1.000
    Cr131   Cr   0.63750   0.41880   0.47185   1.000
    Cr132   Cr   0.47185   0.47185   0.63750   1.000
    Cr133   Cr   0.83120   0.77815   0.61250   1.000
    Cr134   Cr   0.77815   0.83120   0.77815   1.000
    Cr135   Cr   0.77815   0.61250   0.77815   1.000
    Cr136   Cr   0.61250   0.77815   0.83120   1.000
    Cr137   Cr   0.77815   0.83120   0.61250   1.000
    Cr138   Cr   0.61250   0.77815   0.77815   1.000
    Cr139   Cr   0.83120   0.77815   0.77815   1.000
    Cr140   Cr   0.77815   0.61250   0.83120   1.000
    Cr141   Cr   0.77815   0.77815   0.61250   1.000
    Cr142   Cr   0.83120   0.61250   0.77815   1.000
    Cr143   Cr   0.61250   0.83120   0.77815   1.000
    Cr144   Cr   0.77815   0.77815   0.83120   1.000
    Cr145   Cr   0.12500   0.34065   0.62500   1.000
    Cr146   Cr   0.34065   0.12500   0.90935   1.000
    Cr147   Cr   0.62500   0.90935   0.12500   1.000
    Cr148   Cr   0.90935   0.62500   0.34065   1.000
    Cr149   Cr   0.62500   0.12500   0.34065   1.000
    Cr150   Cr   0.90935   0.34065   0.12500   1.000
    Cr151   Cr   0.12500   0.62500   0.90935   1.000
    Cr152   Cr   0.34065   0.90935   0.62500   1.000
    Cr153   Cr   0.34065   0.62500   0.12500   1.000
    Cr154   Cr   0.12500   0.90935   0.34065   1.000
    Cr155   Cr   0.90935   0.12500   0.62500   1.000
    Cr156   Cr   0.62500   0.34065   0.90935   1.000
    Cr157   Cr   0.12500   0.90935   0.62500   1.000
    Cr158   Cr   0.73756   0.73756   0.23592   1.000
    Cr159   Cr   0.73756   0.73756   0.28896   1.000
    Cr160   Cr   0.73756   0.23592   0.28896   1.000
    Cr161   Cr   0.73756   0.28896   0.23592   1.000
    Cr162   Cr   0.23592   0.73756   0.73756   1.000
    Cr163   Cr   0.28896   0.73756   0.73756   1.000
    Cr164   Cr   0.28896   0.73756   0.23592   1.000
    Cr165   Cr   0.23592   0.73756   0.28896   1.000
    Cr166   Cr   0.73756   0.23592   0.73756   1.000
    Cr167   Cr   0.73756   0.28896   0.73756   1.000
    Cr168   Cr   0.01408   0.96104   0.51244   1.000
    Cr169   Cr   0.96104   0.01408   0.51244   1.000
    Cr170   Cr   0.51244   0.51244   0.96104   1.000
    Cr171   Cr   0.51244   0.51244   0.01408   1.000
    Cr172   Cr   0.51244   0.01408   0.51244   1.000
    Cr173   Cr   0.51244   0.96104   0.51244   1.000
    Cr174   Cr   0.01408   0.51244   0.96104   1.000
    Cr175   Cr   0.96104   0.51244   0.01408   1.000
    Cr176   Cr   0.96104   0.51244   0.51244   1.000
    Cr177   Cr   0.01408   0.51244   0.51244   1.000
    Cr178   Cr   0.51244   0.01408   0.96104   1.000
    Cr179   Cr   0.51244   0.96104   0.01408   1.000
    Cr180   Cr   0.32574   0.32574   0.49285   1.000
    Cr181   Cr   0.32574   0.32574   0.85566   1.000
    Cr182   Cr   0.49285   0.85566   0.32574   1.000
    Cr183   Cr   0.85566   0.49285   0.32574   1.000
    Cr184   Cr   0.49285   0.32574   0.32574   1.000
    Cr185   Cr   0.85566   0.32574   0.32574   1.000
    Cr186   Cr   0.32574   0.49285   0.85566   1.000
    Cr187   Cr   0.32574   0.85566   0.49285   1.000
    Cr188   Cr   0.32574   0.49285   0.32574   1.000
    Cr189   Cr   0.32574   0.85566   0.32574   1.000
    Cr190   Cr   0.85566   0.32574   0.49285   1.000
    Cr191   Cr   0.49285   0.32574   0.85566   1.000
    Cr192   Cr   0.92426   0.92426   0.39434   1.000
    Cr193   Cr   0.92426   0.92426   0.75715   1.000
    Cr194   Cr   0.75715   0.39434   0.92426   1.000
    Cr195   Cr   0.39434   0.75715   0.92426   1.000
    Cr196   Cr   0.75715   0.92426   0.39434   1.000
    Cr197   Cr   0.39434   0.92426   0.75715   1.000
    Cr198   Cr   0.92426   0.75715   0.92426   1.000
    Cr199   Cr   0.92426   0.39434   0.92426   1.000
    Cr200   Cr   0.92426   0.75715   0.39434   1.000
    Cr201   Cr   0.92426   0.39434   0.75715   1.000
    Cr202   Cr   0.39434   0.92426   0.92426   1.000
    Cr203   Cr   0.75715   0.92426   0.92426   1.000
