# CIF file generated by openbabel 2.4.90, see http://openbabel.sf.net
data_I
_chemical_name_common ''
_cell_length_a 62.8399
_cell_length_b 62.8399
_cell_length_c 62.8399
_cell_angle_alpha 60
_cell_angle_beta 60
_cell_angle_gamma 60
_space_group_name_H-M_alt 'P 1'
_space_group_name_Hall 'P 1'
loop_
    _symmetry_equiv_pos_as_xyz
    x,y,z
loop_
    _atom_site_label
    _atom_site_type_symbol
    _atom_site_fract_x
    _atom_site_fract_y
    _atom_site_fract_z
    _atom_site_occupancy
    Zr0     Zr   0.11423   0.28384   0.65770   1.000
    Zr1     Zr   0.30656   0.35963   0.53034   1.000
    Zr2     Zr   0.28384   0.11423   0.94423   1.000
    Zr3     Zr   0.35963   0.30656   0.80348   1.000
    Zr4     Zr   0.65770   0.94423   0.11423   1.000
    Zr5     Zr   0.53034   0.80348   0.30656   1.000
    Zr6     Zr   0.94423   0.65770   0.28384   1.000
    Zr7     Zr   0.80348   0.53034   0.35963   1.000
    Zr8     Zr   0.65770   0.11423   0.28384   1.000
    Zr9     Zr   0.53034   0.30656   0.35963   1.000
    Zr10    Zr   0.94423   0.28384   0.11423   1.000
    Zr11    Zr   0.80348   0.35963   0.30656   1.000
    Zr12    Zr   0.11423   0.65770   0.94423   1.000
    Zr13    Zr   0.30656   0.53034   0.80348   1.000
    Zr14    Zr   0.28384   0.94423   0.65770   1.000
    Zr15    Zr   0.35963   0.80348   0.53034   1.000
    Zr16    Zr   0.28384   0.65770   0.11423   1.000
    Zr17    Zr   0.35963   0.53034   0.30656   1.000
    Zr18    Zr   0.11423   0.94423   0.28384   1.000
    Zr19    Zr   0.30656   0.80348   0.35963   1.000
    Zr20    Zr   0.94423   0.11423   0.65770   1.000
    Zr21    Zr   0.80348   0.30656   0.53034   1.000
    Zr22    Zr   0.65770   0.28384   0.94423   1.000
    Zr23    Zr   0.53034   0.35963   0.80348   1.000
    Zr24    Zr   0.13577   0.96616   0.30577   1.000
    Zr25    Zr   0.94344   0.89037   0.44652   1.000
    Zr26    Zr   0.96616   0.13577   0.59230   1.000
    Zr27    Zr   0.89037   0.94344   0.71966   1.000
    Zr28    Zr   0.59230   0.30577   0.96616   1.000
    Zr29    Zr   0.71966   0.44652   0.89037   1.000
    Zr30    Zr   0.30577   0.59230   0.13577   1.000
    Zr31    Zr   0.44652   0.71966   0.94344   1.000
    Zr32    Zr   0.59230   0.13577   0.30577   1.000
    Zr33    Zr   0.71966   0.94344   0.44652   1.000
    Zr34    Zr   0.30577   0.96616   0.59230   1.000
    Zr35    Zr   0.44652   0.89037   0.71966   1.000
    Zr36    Zr   0.13577   0.59230   0.96616   1.000
    Zr37    Zr   0.94344   0.71966   0.89037   1.000
    Zr38    Zr   0.96616   0.30577   0.13577   1.000
    Zr39    Zr   0.89037   0.44652   0.94344   1.000
    Zr40    Zr   0.96616   0.59230   0.30577   1.000
    Zr41    Zr   0.89037   0.71966   0.44652   1.000
    Zr42    Zr   0.13577   0.30577   0.59230   1.000
    Zr43    Zr   0.94344   0.44652   0.71966   1.000
    Zr44    Zr   0.30577   0.13577   0.96616   1.000
    Zr45    Zr   0.44652   0.94344   0.89037   1.000
    Zr46    Zr   0.59230   0.96616   0.13577   1.000
    Zr47    Zr   0.71966   0.89037   0.94344   1.000
    Zr48    Zr   0.13577   0.96616   0.59230   1.000
    Zr49    Zr   0.94344   0.89037   0.71966   1.000
    Zr50    Zr   0.96616   0.13577   0.30577   1.000
    Zr51    Zr   0.89037   0.94344   0.44652   1.000
    Zr52    Zr   0.59230   0.30577   0.13577   1.000
    Zr53    Zr   0.71966   0.44652   0.94344   1.000
    Zr54    Zr   0.30577   0.59230   0.96616   1.000
    Zr55    Zr   0.44652   0.71966   0.89037   1.000
    Zr56    Zr   0.59230   0.13577   0.96616   1.000
    Zr57    Zr   0.71966   0.94344   0.89037   1.000
    Zr58    Zr   0.30577   0.96616   0.13577   1.000
    Zr59    Zr   0.44652   0.89037   0.94344   1.000
    Zr60    Zr   0.13577   0.59230   0.30577   1.000
    Zr61    Zr   0.94344   0.71966   0.44652   1.000
    Zr62    Zr   0.96616   0.30577   0.59230   1.000
    Zr63    Zr   0.89037   0.44652   0.71966   1.000
    Zr64    Zr   0.96616   0.59230   0.13577   1.000
    Zr65    Zr   0.89037   0.71966   0.94344   1.000
    Zr66    Zr   0.13577   0.30577   0.96616   1.000
    Zr67    Zr   0.94344   0.44652   0.89037   1.000
    Zr68    Zr   0.30577   0.13577   0.59230   1.000
    Zr69    Zr   0.44652   0.94344   0.71966   1.000
    Zr70    Zr   0.59230   0.96616   0.30577   1.000
    Zr71    Zr   0.71966   0.89037   0.44652   1.000
    Zr72    Zr   0.11423   0.28384   0.94423   1.000
    Zr73    Zr   0.30656   0.35963   0.80348   1.000
    Zr74    Zr   0.28384   0.11423   0.65770   1.000
    Zr75    Zr   0.35963   0.30656   0.53034   1.000
    Zr76    Zr   0.65770   0.94423   0.28384   1.000
    Zr77    Zr   0.53034   0.80348   0.35963   1.000
    Zr78    Zr   0.94423   0.65770   0.11423   1.000
    Zr79    Zr   0.80348   0.53034   0.30656   1.000
    Zr80    Zr   0.65770   0.11423   0.94423   1.000
    Zr81    Zr   0.53034   0.30656   0.80348   1.000
    Zr82    Zr   0.94423   0.28384   0.65770   1.000
    Zr83    Zr   0.80348   0.35963   0.53034   1.000
    Zr84    Zr   0.11423   0.65770   0.28384   1.000
    Zr85    Zr   0.30656   0.53034   0.35963   1.000
    Zr86    Zr   0.28384   0.94423   0.11423   1.000
    Zr87    Zr   0.35963   0.80348   0.30656   1.000
    Zr88    Zr   0.28384   0.65770   0.94423   1.000
    Zr89    Zr   0.35963   0.53034   0.80348   1.000
    Zr90    Zr   0.11423   0.94423   0.65770   1.000
    Zr91    Zr   0.30656   0.80348   0.53034   1.000
    Zr92    Zr   0.94423   0.11423   0.28384   1.000
    Zr93    Zr   0.80348   0.30656   0.35963   1.000
    Zr94    Zr   0.65770   0.28384   0.11423   1.000
    Zr95    Zr   0.53034   0.35963   0.30656   1.000
    Zr96    Zr   0.41880   0.47185   0.47185   1.000
    Zr97    Zr   0.47185   0.41880   0.63750   1.000
    Zr98    Zr   0.47185   0.63750   0.41880   1.000
    Zr99    Zr   0.63750   0.47185   0.47185   1.000
    Zr100   Zr   0.47185   0.41880   0.47185   1.000
    Zr101   Zr   0.63750   0.47185   0.41880   1.000
    Zr102   Zr   0.41880   0.47185   0.63750   1.000
    Zr103   Zr   0.47185   0.63750   0.47185   1.000
    Zr104   Zr   0.47185   0.47185   0.41880   1.000
    Zr105   Zr   0.41880   0.63750   0.47185   1.000
    Zr106   Zr   0.63750   0.41880   0.47185   1.000
    Zr107   Zr   0.47185   0.47185   0.63750   1.000
    Zr108   Zr   0.83120   0.77815   0.61250   1.000
    Zr109   Zr   0.77815   0.83120   0.77815   1.000
    Zr110   Zr   0.77815   0.61250   0.77815   1.000
    Zr111   Zr   0.61250   0.77815   0.83120   1.000
    Zr112   Zr   0.77815   0.83120   0.61250   1.000
    Zr113   Zr   0.61250   0.77815   0.77815   1.000
    Zr114   Zr   0.83120   0.77815   0.77815   1.000
    Zr115   Zr   0.77815   0.61250   0.83120   1.000
    Zr116   Zr   0.77815   0.77815   0.61250   1.000
    Zr117   Zr   0.83120   0.61250   0.77815   1.000
    Zr118   Zr   0.61250   0.83120   0.77815   1.000
    Zr119   Zr   0.77815   0.77815   0.83120   1.000
    Zr120   Zr   0.12500   0.34065   0.62500   1.000
    Zr121   Zr   0.34065   0.12500   0.90935   1.000
    Zr122   Zr   0.62500   0.90935   0.12500   1.000
    Zr123   Zr   0.90935   0.62500   0.34065   1.000
    Zr124   Zr   0.62500   0.12500   0.34065   1.000
    Zr125   Zr   0.90935   0.34065   0.12500   1.000
    Zr126   Zr   0.12500   0.62500   0.90935   1.000
    Zr127   Zr   0.34065   0.90935   0.62500   1.000
    Zr128   Zr   0.34065   0.62500   0.12500   1.000
    Zr129   Zr   0.12500   0.90935   0.34065   1.000
    Zr130   Zr   0.90935   0.12500   0.62500   1.000
    Zr131   Zr   0.62500   0.34065   0.90935   1.000
    Zr132   Zr   0.12500   0.90935   0.62500   1.000
    Zr133   Zr   0.90935   0.12500   0.34065   1.000
    Zr134   Zr   0.62500   0.34065   0.12500   1.000
    Zr135   Zr   0.34065   0.62500   0.90935   1.000
    Zr136   Zr   0.62500   0.12500   0.90935   1.000
    Zr137   Zr   0.34065   0.90935   0.12500   1.000
    Zr138   Zr   0.12500   0.62500   0.34065   1.000
    Zr139   Zr   0.90935   0.34065   0.62500   1.000
    Zr140   Zr   0.90935   0.62500   0.12500   1.000
    Zr141   Zr   0.12500   0.34065   0.90935   1.000
    Zr142   Zr   0.34065   0.12500   0.62500   1.000
    Zr143   Zr   0.62500   0.90935   0.34065   1.000
    Zr144   Zr   0.22983   0.22983   0.77017   1.000
    Zr145   Zr   0.77017   0.77017   0.22983   1.000
    Zr146   Zr   0.77017   0.22983   0.22983   1.000
    Zr147   Zr   0.22983   0.77017   0.77017   1.000
    Zr148   Zr   0.22983   0.77017   0.22983   1.000
    Zr149   Zr   0.77017   0.22983   0.77017   1.000
    Zr150   Zr   0.02017   0.02017   0.47983   1.000
    Zr151   Zr   0.47983   0.47983   0.02017   1.000
    Zr152   Zr   0.47983   0.02017   0.47983   1.000
    Zr153   Zr   0.02017   0.47983   0.02017   1.000
    Zr154   Zr   0.02017   0.47983   0.47983   1.000
    Zr155   Zr   0.47983   0.02017   0.02017   1.000
    Zr156   Zr   0.23592   0.28896   0.73756   1.000
    Zr157   Zr   0.28896   0.23592   0.73756   1.000
    Zr158   Zr   0.73756   0.73756   0.23592   1.000
    Zr159   Zr   0.73756   0.73756   0.28896   1.000
    Zr160   Zr   0.73756   0.23592   0.28896   1.000
    Zr161   Zr   0.73756   0.28896   0.23592   1.000
    Zr162   Zr   0.23592   0.73756   0.73756   1.000
    Zr163   Zr   0.28896   0.73756   0.73756   1.000
    Zr164   Zr   0.28896   0.73756   0.23592   1.000
    Zr165   Zr   0.23592   0.73756   0.28896   1.000
    Zr166   Zr   0.73756   0.23592   0.73756   1.000
    Zr167   Zr   0.73756   0.28896   0.73756   1.000
    Zr168   Zr   0.01408   0.96104   0.51244   1.000
    Zr169   Zr   0.96104   0.01408   0.51244   1.000
    Zr170   Zr   0.51244   0.51244   0.96104   1.000
    Zr171   Zr   0.51244   0.51244   0.01408   1.000
    Zr172   Zr   0.51244   0.01408   0.51244   1.000
    Zr173   Zr   0.51244   0.96104   0.51244   1.000
    Zr174   Zr   0.01408   0.51244   0.96104   1.000
    Zr175   Zr   0.96104   0.51244   0.01408   1.000
    Zr176   Zr   0.96104   0.51244   0.51244   1.000
    Zr177   Zr   0.01408   0.51244   0.51244   1.000
    Zr178   Zr   0.51244   0.01408   0.96104   1.000
    Zr179   Zr   0.51244   0.96104   0.01408   1.000
    Zr180   Zr   0.32574   0.32574   0.49285   1.000
    Zr181   Zr   0.32574   0.32574   0.85566   1.000
    Zr182   Zr   0.49285   0.85566   0.32574   1.000
    Zr183   Zr   0.85566   0.49285   0.32574   1.000
    Zr184   Zr   0.49285   0.32574   0.32574   1.000
    Zr185   Zr   0.85566   0.32574   0.32574   1.000
    Zr186   Zr   0.32574   0.49285   0.85566   1.000
    Zr187   Zr   0.32574   0.85566   0.49285   1.000
    Zr188   Zr   0.32574   0.49285   0.32574   1.000
    Zr189   Zr   0.32574   0.85566   0.32574   1.000
    Zr190   Zr   0.85566   0.32574   0.49285   1.000
    Zr191   Zr   0.49285   0.32574   0.85566   1.000
    Zr192   Zr   0.92426   0.92426   0.39434   1.000
    Zr193   Zr   0.92426   0.92426   0.75715   1.000
    Zr194   Zr   0.75715   0.39434   0.92426   1.000
    Zr195   Zr   0.39434   0.75715   0.92426   1.000
    Zr196   Zr   0.75715   0.92426   0.39434   1.000
    Zr197   Zr   0.39434   0.92426   0.75715   1.000
    Zr198   Zr   0.92426   0.75715   0.92426   1.000
    Zr199   Zr   0.92426   0.39434   0.92426   1.000
    Zr200   Zr   0.92426   0.75715   0.39434   1.000
    Zr201   Zr   0.92426   0.39434   0.75715   1.000
    Zr202   Zr   0.39434   0.92426   0.92426   1.000
    Zr203   Zr   0.75715   0.92426   0.92426   1.000
    N204    N    0.29883   0.76792   0.63443   1.000
    O205    O    0.27290   0.75486   0.67723   1.000
    O206    O    0.29502   0.75486   0.67723   1.000
    O207    O    0.30200   0.78268   0.59119   1.000
    O208    O    0.32414   0.78268   0.59119   1.000
    N209    N    0.55392   0.22227   0.88792   1.000
    O210    O    0.52795   0.26511   0.87478   1.000
    O211    O    0.58307   0.18173   0.89733   1.000
    O212    O    0.54369   0.25714   0.85299   1.000
    O213    O    0.56947   0.18655   0.92086   1.000
    N214    N    0.82120   0.93846   0.82120   1.000
    O215    O    0.86396   0.93287   0.79445   1.000
    O216    O    0.84977   0.94100   0.77883   1.000
    O217    O    0.77883   0.94100   0.84977   1.000
    O218    O    0.79445   0.93287   0.86396   1.000
    N219    N    0.55392   0.22227   0.33589   1.000
    O220    O    0.54369   0.25714   0.34618   1.000
    O221    O    0.56947   0.18655   0.32312   1.000
    O222    O    0.52795   0.26511   0.33216   1.000
    O223    O    0.58307   0.18173   0.33787   1.000
    N224    N    0.02773   0.69608   0.91411   1.000
    O225    O    0.06345   0.68053   0.92688   1.000
    O226    O    0.98489   0.72205   0.91784   1.000
    O227    O    0.99286   0.70631   0.90382   1.000
    O228    O    0.06827   0.66693   0.91213   1.000
    N229    N    0.84016   0.17314   0.70086   1.000
    O230    O    0.86904   0.15333   0.66918   1.000
    O231    O    0.79733   0.19860   0.71675   1.000
    O232    O    0.81096   0.19602   0.73032   1.000
    O233    O    0.88348   0.14862   0.68305   1.000
    N234    N    0.17314   0.84016   0.28583   1.000
    O235    O    0.14862   0.88348   0.28485   1.000
    O236    O    0.19602   0.81096   0.26269   1.000
    O237    O    0.15333   0.86904   0.30845   1.000
    O238    O    0.19860   0.79733   0.28732   1.000
    N239    N    0.40984   0.54914   0.07686   1.000
    O240    O    0.36652   0.56695   0.10138   1.000
    O241    O    0.45267   0.53325   0.05140   1.000
    O242    O    0.38096   0.58082   0.09667   1.000
    O243    O    0.43904   0.51968   0.05398   1.000
    N244    N    0.36208   0.69608   0.91411   1.000
    O245    O    0.39701   0.70631   0.90382   1.000
    O246    O    0.37522   0.72205   0.91784   1.000
    O247    O    0.35267   0.66693   0.91213   1.000
    O248    O    0.32914   0.68053   0.92688   1.000
    N249    N    0.04438   0.04438   0.62503   1.000
    O250    O    0.01217   0.08278   0.61139   1.000
    O251    O    0.08278   0.01217   0.61139   1.000
    O252    O    0.00311   0.07396   0.63861   1.000
    O253    O    0.07396   0.00311   0.63861   1.000
    N254    N    0.55773   0.44227   0.55773   1.000
    O255    O    0.52236   0.43223   0.59105   1.000
    O256    O    0.59105   0.43223   0.52236   1.000
    O257    O    0.52236   0.45435   0.59105   1.000
    O258    O    0.59105   0.45435   0.52236   1.000
    N259    N    0.96417   0.54914   0.07686   1.000
    O260    O    0.94155   0.58082   0.09667   1.000
    O261    O    0.98731   0.51968   0.05398   1.000
    O262    O    0.96515   0.56695   0.10138   1.000
    O263    O    0.96268   0.53325   0.05140   1.000
    N264    N    0.96417   0.54914   0.40984   1.000
    O265    O    0.96515   0.56695   0.36652   1.000
    O266    O    0.94155   0.58082   0.38096   1.000
    O267    O    0.98731   0.51968   0.43904   1.000
    O268    O    0.96268   0.53325   0.45267   1.000
    N269    N    0.40984   0.96417   0.54914   1.000
    O270    O    0.36652   0.96515   0.56695   1.000
    O271    O    0.38096   0.94155   0.58082   1.000
    O272    O    0.45267   0.96268   0.53325   1.000
    O273    O    0.43904   0.98731   0.51968   1.000
    N274    N    0.38801   0.38801   0.50707   1.000
    O275    O    0.40071   0.42285   0.49269   1.000
    O276    O    0.42285   0.40071   0.49269   1.000
    O277    O    0.35396   0.37612   0.51743   1.000
    O278    O    0.37612   0.35396   0.51743   1.000
    N279    N    0.70086   0.28583   0.84016   1.000
    O280    O    0.68305   0.28485   0.88348   1.000
    O281    O    0.71675   0.28732   0.79733   1.000
    O282    O    0.66918   0.30845   0.86904   1.000
    O283    O    0.73032   0.26269   0.81096   1.000
    N284    N    0.50706   0.38801   0.71691   1.000
    O285    O    0.51743   0.35396   0.75249   1.000
    O286    O    0.49269   0.40071   0.68376   1.000
    O287    O    0.51743   0.37612   0.75249   1.000
    O288    O    0.49269   0.42285   0.68376   1.000
    N289    N    0.88792   0.55392   0.33589   1.000
    O290    O    0.87478   0.52795   0.33216   1.000
    O291    O    0.92086   0.56947   0.32312   1.000
    O292    O    0.85299   0.54369   0.34618   1.000
    O293    O    0.89733   0.58307   0.33787   1.000
    N294    N    0.22227   0.88792   0.33589   1.000
    O295    O    0.26511   0.87478   0.33216   1.000
    O296    O    0.18173   0.89733   0.33787   1.000
    O297    O    0.25714   0.85299   0.34618   1.000
    O298    O    0.18655   0.92086   0.32312   1.000
    N299    N    0.69608   0.36208   0.02773   1.000
    O300    O    0.70631   0.39701   0.99286   1.000
    O301    O    0.66693   0.35267   0.06827   1.000
    O302    O    0.72205   0.37522   0.98489   1.000
    O303    O    0.68053   0.32914   0.06345   1.000
    N304    N    0.69227   0.80773   0.80773   1.000
    O305    O    0.65895   0.81777   0.79565   1.000
    O306    O    0.65895   0.79565   0.81777   1.000
    O307    O    0.72764   0.79565   0.81777   1.000
    O308    O    0.72764   0.81777   0.79565   1.000
    N309    N    0.22227   0.88792   0.55392   1.000
    O310    O    0.26511   0.87478   0.52795   1.000
    O311    O    0.25714   0.85299   0.54369   1.000
    O312    O    0.18173   0.89733   0.58307   1.000
    O313    O    0.18655   0.92086   0.56947   1.000
    N314    N    0.12500   0.93992   0.31008   1.000
    O315    O    0.12231   0.94100   0.30352   1.000
    O316    O    0.12500   0.93228   0.31772   1.000
    O317    O    0.12769   0.94648   0.30900   1.000
    N318    N    0.50706   0.71691   0.38801   1.000
    O319    O    0.51743   0.75249   0.37612   1.000
    O320    O    0.49269   0.68376   0.42285   1.000
    O321    O    0.49269   0.68376   0.40071   1.000
    O322    O    0.51743   0.75249   0.35396   1.000
    N323    N    0.63443   0.29883   0.29883   1.000
    O324    O    0.59119   0.32414   0.30200   1.000
    O325    O    0.59119   0.30200   0.32414   1.000
    O326    O    0.67723   0.29502   0.27290   1.000
    O327    O    0.67723   0.27290   0.29502   1.000
    N328    N    0.42880   0.83087   0.31154   1.000
    O329    O    0.47117   0.81960   0.30900   1.000
    O330    O    0.40023   0.81960   0.30900   1.000
    O331    O    0.45555   0.84128   0.31713   1.000
    O332    O    0.38604   0.84128   0.31713   1.000
    N333    N    0.91411   0.02773   0.69608   1.000
    O334    O    0.91784   0.98489   0.72205   1.000
    O335    O    0.91213   0.06827   0.66693   1.000
    O336    O    0.90382   0.99286   0.70631   1.000
    O337    O    0.92688   0.06345   0.68053   1.000
    N338    N    0.02773   0.36208   0.91411   1.000
    O339    O    0.06345   0.32914   0.92688   1.000
    O340    O    0.98489   0.37522   0.91784   1.000
    O341    O    0.99286   0.39701   0.90382   1.000
    O342    O    0.06827   0.35267   0.91213   1.000
    N343    N    0.04438   0.28621   0.04438   1.000
    O344    O    0.01217   0.29367   0.08278   1.000
    O345    O    0.07396   0.28431   0.00311   1.000
    O346    O    0.08278   0.29367   0.01217   1.000
    O347    O    0.00311   0.28431   0.07396   1.000
    N348    N    0.36208   0.69608   0.02773   1.000
    O349    O    0.37522   0.72205   0.98489   1.000
    O350    O    0.39701   0.70631   0.99286   1.000
    O351    O    0.32914   0.68053   0.06345   1.000
    O352    O    0.35267   0.66693   0.06827   1.000
    N353    N    0.28583   0.70086   0.17314   1.000
    O354    O    0.28732   0.71675   0.19860   1.000
    O355    O    0.28485   0.68305   0.14862   1.000
    O356    O    0.30845   0.66918   0.15333   1.000
    O357    O    0.26269   0.73032   0.19602   1.000
    N358    N    0.69227   0.69227   0.80773   1.000
    O359    O    0.72764   0.65895   0.79565   1.000
    O360    O    0.65895   0.72764   0.79565   1.000
    O361    O    0.72764   0.65895   0.81777   1.000
    O362    O    0.65895   0.72764   0.81777   1.000
    N363    N    0.55392   0.88792   0.33589   1.000
    O364    O    0.52795   0.87478   0.33216   1.000
    O365    O    0.54369   0.85299   0.34618   1.000
    O366    O    0.58307   0.89733   0.33787   1.000
    O367    O    0.56947   0.92086   0.32312   1.000
    N368    N    0.20562   0.96379   0.20562   1.000
    O369    O    0.23783   0.95634   0.16722   1.000
    O370    O    0.24689   0.96569   0.17604   1.000
    O371    O    0.17604   0.96569   0.24689   1.000
    O372    O    0.16722   0.95633   0.23783   1.000
    N373    N    0.29883   0.29883   0.63443   1.000
    O374    O    0.29502   0.27290   0.67723   1.000
    O375    O    0.32414   0.30200   0.59119   1.000
    O376    O    0.27290   0.29502   0.67723   1.000
    O377    O    0.30200   0.32414   0.59119   1.000
    N378    N    0.71691   0.50706   0.38801   1.000
    O379    O    0.75249   0.51743   0.35396   1.000
    O380    O    0.68376   0.49269   0.40071   1.000
    O381    O    0.68376   0.49269   0.42285   1.000
    O382    O    0.75249   0.51743   0.37612   1.000
    N383    N    0.95117   0.61557   0.48208   1.000
    O384    O    0.95498   0.57277   0.49514   1.000
    O385    O    0.94800   0.65881   0.46732   1.000
    O386    O    0.97710   0.57277   0.49514   1.000
    O387    O    0.92586   0.65881   0.46732   1.000
    N388    N    0.44227   0.44227   0.55773   1.000
    O389    O    0.45435   0.43223   0.52236   1.000
    O390    O    0.45435   0.43223   0.59105   1.000
    O391    O    0.43223   0.45435   0.59105   1.000
    O392    O    0.43223   0.45435   0.52236   1.000
    N393    N    0.82120   0.82120   0.41913   1.000
    O394    O    0.79445   0.86396   0.40872   1.000
    O395    O    0.77883   0.84977   0.43040   1.000
    O396    O    0.86396   0.79445   0.40872   1.000
    O397    O    0.84977   0.77883   0.43040   1.000
    N398    N    0.69608   0.36208   0.91411   1.000
    O399    O    0.72205   0.37522   0.91784   1.000
    O400    O    0.70631   0.39701   0.90382   1.000
    O401    O    0.68053   0.32914   0.92688   1.000
    O402    O    0.66693   0.35267   0.91213   1.000
    N403    N    0.28621   0.62502   0.04438   1.000
    O404    O    0.28431   0.63861   0.00311   1.000
    O405    O    0.29366   0.61138   0.01217   1.000
    O406    O    0.29367   0.61139   0.08278   1.000
    O407    O    0.28431   0.63861   0.07396   1.000
    N408    N    0.55392   0.88792   0.22227   1.000
    O409    O    0.58307   0.89733   0.18173   1.000
    O410    O    0.52795   0.87478   0.26511   1.000
    O411    O    0.56947   0.92086   0.18655   1.000
    O412    O    0.54369   0.85299   0.25714   1.000
    N413    N    0.36208   0.02773   0.91411   1.000
    O414    O    0.32914   0.06345   0.92688   1.000
    O415    O    0.39701   0.99286   0.90382   1.000
    O416    O    0.35267   0.06827   0.91213   1.000
    O417    O    0.37522   0.98489   0.91784   1.000
    N418    N    0.62497   0.20562   0.20562   1.000
    O419    O    0.61139   0.17604   0.24689   1.000
    O420    O    0.63862   0.23783   0.16722   1.000
    O421    O    0.63861   0.16722   0.23783   1.000
    O422    O    0.61139   0.24689   0.17604   1.000
    N423    N    0.70086   0.84016   0.17314   1.000
    O424    O    0.68305   0.88348   0.14862   1.000
    O425    O    0.71675   0.79733   0.19860   1.000
    O426    O    0.73032   0.81096   0.19602   1.000
    O427    O    0.66918   0.86904   0.15333   1.000
    N428    N    0.28583   0.17314   0.84016   1.000
    O429    O    0.28485   0.14862   0.88348   1.000
    O430    O    0.26269   0.19602   0.81096   1.000
    O431    O    0.30845   0.15333   0.86904   1.000
    O432    O    0.28732   0.19860   0.79733   1.000
    N433    N    0.91411   0.69608   0.02773   1.000
    O434    O    0.92688   0.68053   0.06345   1.000
    O435    O    0.90382   0.70631   0.99286   1.000
    O436    O    0.91784   0.72205   0.98489   1.000
    O437    O    0.91213   0.66693   0.06827   1.000
    N438    N    0.55773   0.44227   0.44227   1.000
    O439    O    0.52236   0.45435   0.43223   1.000
    O440    O    0.59105   0.43223   0.45435   1.000
    O441    O    0.59105   0.45435   0.43223   1.000
    O442    O    0.52236   0.43223   0.45435   1.000
    N443    N    0.83087   0.42880   0.42880   1.000
    O444    O    0.81960   0.47117   0.40023   1.000
    O445    O    0.84128   0.45555   0.38604   1.000
    O446    O    0.81960   0.40023   0.47117   1.000
    O447    O    0.84128   0.38604   0.45555   1.000
    N448    N    0.02773   0.69608   0.36208   1.000
    O449    O    0.06345   0.68053   0.32914   1.000
    O450    O    0.98489   0.72205   0.37522   1.000
    O451    O    0.06827   0.66693   0.35267   1.000
    O452    O    0.99286   0.70631   0.39701   1.000
    N453    N    0.71691   0.38801   0.50706   1.000
    O454    O    0.75249   0.35396   0.51743   1.000
    O455    O    0.68376   0.42285   0.49269   1.000
    O456    O    0.75249   0.37612   0.51743   1.000
    O457    O    0.68376   0.40071   0.49269   1.000
    N458    N    0.55392   0.33589   0.22227   1.000
    O459    O    0.56947   0.32312   0.18655   1.000
    O460    O    0.54369   0.34618   0.25714   1.000
    O461    O    0.58307   0.33787   0.18173   1.000
    O462    O    0.52795   0.33216   0.26511   1.000
    N463    N    0.54914   0.96417   0.40984   1.000
    O464    O    0.58082   0.94155   0.38096   1.000
    O465    O    0.53325   0.96268   0.45267   1.000
    O466    O    0.51968   0.98731   0.43904   1.000
    O467    O    0.56695   0.96515   0.36652   1.000
    N468    N    0.62497   0.96379   0.20562   1.000
    O469    O    0.63861   0.95633   0.23783   1.000
    O470    O    0.61139   0.96569   0.24689   1.000
    O471    O    0.61139   0.96569   0.17604   1.000
    O472    O    0.63861   0.95634   0.16722   1.000
    N473    N    0.88792   0.33589   0.22227   1.000
    O474    O    0.92086   0.32312   0.18655   1.000
    O475    O    0.87478   0.33216   0.26511   1.000
    O476    O    0.89733   0.33787   0.18173   1.000
    O477    O    0.85299   0.34618   0.25714   1.000
    N478    N    0.62503   0.28620   0.04438   1.000
    O479    O    0.61138   0.29367   0.01217   1.000
    O480    O    0.61139   0.29367   0.08278   1.000
    O481    O    0.63861   0.28431   0.00311   1.000
    O482    O    0.63861   0.28431   0.07396   1.000
    N483    N    0.84016   0.28583   0.17314   1.000
    O484    O    0.86904   0.30845   0.15333   1.000
    O485    O    0.88348   0.28485   0.14862   1.000
    O486    O    0.79733   0.28732   0.19860   1.000
    O487    O    0.81096   0.26269   0.19602   1.000
    N488    N    0.41913   0.82120   0.82120   1.000
    O489    O    0.40872   0.79445   0.86396   1.000
    O490    O    0.43040   0.77883   0.84977   1.000
    O491    O    0.40872   0.86396   0.79445   1.000
    O492    O    0.43040   0.84977   0.77883   1.000
    N493    N    0.33589   0.55392   0.22227   1.000
    O494    O    0.33216   0.52795   0.26511   1.000
    O495    O    0.32312   0.56947   0.18655   1.000
    O496    O    0.33787   0.58307   0.18173   1.000
    O497    O    0.34618   0.54369   0.25714   1.000
    N498    N    0.17314   0.28583   0.70086   1.000
    O499    O    0.19602   0.26269   0.73032   1.000
    O500    O    0.14862   0.28485   0.68305   1.000
    O501    O    0.19860   0.28732   0.71675   1.000
    O502    O    0.15333   0.30845   0.66918   1.000
    N503    N    0.88792   0.55392   0.22227   1.000
    O504    O    0.87478   0.52795   0.26511   1.000
    O505    O    0.85299   0.54369   0.25714   1.000
    O506    O    0.89733   0.58307   0.18173   1.000
    O507    O    0.92086   0.56947   0.18655   1.000
    N508    N    0.42880   0.42880   0.83087   1.000
    O509    O    0.45555   0.38604   0.84128   1.000
    O510    O    0.47117   0.40023   0.81960   1.000
    O511    O    0.40023   0.47117   0.81960   1.000
    O512    O    0.38604   0.45555   0.84128   1.000
    N513    N    0.29883   0.29883   0.76792   1.000
    O514    O    0.30200   0.32414   0.78268   1.000
    O515    O    0.27290   0.29502   0.75486   1.000
    O516    O    0.32414   0.30200   0.78268   1.000
    O517    O    0.29502   0.27290   0.75486   1.000
    N518    N    0.70086   0.17314   0.84016   1.000
    O519    O    0.66918   0.15333   0.86904   1.000
    O520    O    0.68305   0.14862   0.88348   1.000
    O521    O    0.73032   0.19602   0.81096   1.000
    O522    O    0.71675   0.19860   0.79733   1.000
    N523    N    0.38801   0.50706   0.71691   1.000
    O524    O    0.35396   0.51743   0.75249   1.000
    O525    O    0.42285   0.49269   0.68376   1.000
    O526    O    0.40071   0.49269   0.68376   1.000
    O527    O    0.37612   0.51743   0.75249   1.000
    N528    N    0.44227   0.55773   0.55773   1.000
    O529    O    0.43223   0.59105   0.52236   1.000
    O530    O    0.43223   0.52236   0.59105   1.000
    O531    O    0.45435   0.52236   0.59105   1.000
    O532    O    0.45435   0.59105   0.52236   1.000
    N533    N    0.95117   0.61557   0.95117   1.000
    O534    O    0.94800   0.65881   0.92586   1.000
    O535    O    0.97710   0.57277   0.95498   1.000
    O536    O    0.92586   0.65881   0.94800   1.000
    O537    O    0.95498   0.57277   0.97710   1.000
    N538    N    0.93846   0.82120   0.82120   1.000
    O539    O    0.94100   0.84977   0.77883   1.000
    O540    O    0.93287   0.79445   0.86396   1.000
    O541    O    0.93287   0.86396   0.79445   1.000
    O542    O    0.94100   0.77883   0.84977   1.000
    N543    N    0.88792   0.22227   0.33589   1.000
    O544    O    0.92086   0.18655   0.32312   1.000
    O545    O    0.89733   0.18173   0.33787   1.000
    O546    O    0.85299   0.25714   0.34618   1.000
    O547    O    0.87478   0.26511   0.33216   1.000
    N548    N    0.54914   0.07686   0.40984   1.000
    O549    O    0.51968   0.05398   0.43904   1.000
    O550    O    0.58082   0.09667   0.38096   1.000
    O551    O    0.53325   0.05140   0.45267   1.000
    O552    O    0.56695   0.10138   0.36652   1.000
    N553    N    0.33589   0.22227   0.88792   1.000
    O554    O    0.33787   0.18173   0.89733   1.000
    O555    O    0.32312   0.18655   0.92086   1.000
    O556    O    0.34618   0.25714   0.85299   1.000
    O557    O    0.33216   0.26511   0.87478   1.000
    N558    N    0.20562   0.20562   0.96380   1.000
    O559    O    0.23783   0.16722   0.95634   1.000
    O560    O    0.24689   0.17604   0.96569   1.000
    O561    O    0.17604   0.24689   0.96569   1.000
    O562    O    0.16722   0.23783   0.95634   1.000
    N563    N    0.69608   0.02773   0.91411   1.000
    O564    O    0.66693   0.06827   0.91213   1.000
    O565    O    0.70631   0.99286   0.90382   1.000
    O566    O    0.72205   0.98489   0.91784   1.000
    O567    O    0.68053   0.06345   0.92688   1.000
    N568    N    0.76792   0.63443   0.29883   1.000
    O569    O    0.75486   0.67723   0.29502   1.000
    O570    O    0.78268   0.59119   0.32414   1.000
    O571    O    0.78268   0.59119   0.30200   1.000
    O572    O    0.75486   0.67723   0.27290   1.000
    N573    N    0.69608   0.91411   0.02773   1.000
    O574    O    0.72205   0.91784   0.98489   1.000
    O575    O    0.68053   0.92688   0.06345   1.000
    O576    O    0.70631   0.90382   0.99286   1.000
    O577    O    0.66693   0.91213   0.06827   1.000
    N578    N    0.82120   0.41913   0.93846   1.000
    O579    O    0.79445   0.40872   0.93287   1.000
    O580    O    0.84977   0.43040   0.94100   1.000
    O581    O    0.86396   0.40872   0.93287   1.000
    O582    O    0.77883   0.43040   0.94100   1.000
    N583    N    0.20562   0.20562   0.62498   1.000
    O584    O    0.17604   0.24689   0.61139   1.000
    O585    O    0.23783   0.16722   0.63862   1.000
    O586    O    0.24689   0.17604   0.61139   1.000
    O587    O    0.16722   0.23783   0.63862   1.000
    N588    N    0.54914   0.96417   0.07686   1.000
    O589    O    0.58082   0.94155   0.09667   1.000
    O590    O    0.53325   0.96268   0.05140   1.000
    O591    O    0.51968   0.98731   0.05398   1.000
    O592    O    0.56695   0.96515   0.10138   1.000
    N593    N    0.93846   0.82120   0.41913   1.000
    O594    O    0.94100   0.77883   0.43040   1.000
    O595    O    0.93287   0.86396   0.40872   1.000
    O596    O    0.94100   0.84977   0.43040   1.000
    O597    O    0.93287   0.79445   0.40872   1.000
    N598    N    0.96380   0.20562   0.62497   1.000
    O599    O    0.95633   0.16722   0.63862   1.000
    O600    O    0.96569   0.24689   0.61139   1.000
    O601    O    0.95633   0.23783   0.63862   1.000
    O602    O    0.96569   0.17604   0.61139   1.000
    N603    N    0.61557   0.95117   0.48208   1.000
    O604    O    0.57277   0.95498   0.49514   1.000
    O605    O    0.57277   0.97710   0.49514   1.000
    O606    O    0.65881   0.92586   0.46732   1.000
    O607    O    0.65881   0.94800   0.46732   1.000
    N608    N    0.91411   0.69608   0.36208   1.000
    O609    O    0.91213   0.66693   0.35267   1.000
    O610    O    0.91784   0.72205   0.37522   1.000
    O611    O    0.92688   0.68053   0.32914   1.000
    O612    O    0.90382   0.70631   0.39701   1.000
    N613    N    0.86199   0.74294   0.86199   1.000
    O614    O    0.89604   0.73257   0.87388   1.000
    O615    O    0.84929   0.75731   0.82715   1.000
    O616    O    0.82715   0.75731   0.84929   1.000
    O617    O    0.87388   0.73257   0.89604   1.000
    N618    N    0.42880   0.42880   0.31154   1.000
    O619    O    0.38604   0.45555   0.31713   1.000
    O620    O    0.45555   0.38604   0.31713   1.000
    O621    O    0.40023   0.47117   0.30900   1.000
    O622    O    0.47117   0.40023   0.30900   1.000
    N623    N    0.07686   0.54914   0.40984   1.000
    O624    O    0.05398   0.51968   0.43904   1.000
    O625    O    0.05140   0.53325   0.45267   1.000
    O626    O    0.10138   0.56695   0.36652   1.000
    O627    O    0.09667   0.58082   0.38096   1.000
    N628    N    0.61557   0.48208   0.95117   1.000
    O629    O    0.65881   0.46732   0.92586   1.000
    O630    O    0.57277   0.49514   0.97710   1.000
    O631    O    0.65881   0.46732   0.94800   1.000
    O632    O    0.57277   0.49514   0.95498   1.000
    N633    N    0.02773   0.91411   0.69608   1.000
    O634    O    0.06827   0.91213   0.66693   1.000
    O635    O    0.06345   0.92688   0.68053   1.000
    O636    O    0.99286   0.90382   0.70631   1.000
    O637    O    0.98489   0.91784   0.72205   1.000
    N638    N    0.55392   0.33589   0.88792   1.000
    O639    O    0.52795   0.33216   0.87478   1.000
    O640    O    0.56947   0.32312   0.92086   1.000
    O641    O    0.54369   0.34618   0.85299   1.000
    O642    O    0.58307   0.33787   0.89733   1.000
    N643    N    0.96417   0.07686   0.54914   1.000
    O644    O    0.98731   0.05398   0.51968   1.000
    O645    O    0.96268   0.05140   0.53325   1.000
    O646    O    0.96515   0.10138   0.56695   1.000
    O647    O    0.94155   0.09667   0.58082   1.000
    N648    N    0.83087   0.42880   0.31154   1.000
    O649    O    0.81960   0.47117   0.30900   1.000
    O650    O    0.84128   0.38604   0.31713   1.000
    O651    O    0.84128   0.45555   0.31713   1.000
    O652    O    0.81960   0.40023   0.30900   1.000
    N653    N    0.41913   0.82120   0.93846   1.000
    O654    O    0.43040   0.77883   0.94100   1.000
    O655    O    0.40872   0.86396   0.93287   1.000
    O656    O    0.40872   0.79445   0.93287   1.000
    O657    O    0.43040   0.84977   0.94100   1.000
    N658    N    0.86199   0.53309   0.74294   1.000
    O659    O    0.84929   0.56624   0.75731   1.000
    O660    O    0.89604   0.49751   0.73257   1.000
    O661    O    0.87388   0.49751   0.73257   1.000
    O662    O    0.82715   0.56624   0.75731   1.000
    N663    N    0.93846   0.41913   0.82120   1.000
    O664    O    0.94100   0.43040   0.77883   1.000
    O665    O    0.94100   0.43040   0.84977   1.000
    O666    O    0.93287   0.40872   0.79445   1.000
    O667    O    0.93287   0.40872   0.86396   1.000
    N668    N    0.28620   0.04438   0.04438   1.000
    O669    O    0.29367   0.01217   0.08278   1.000
    O670    O    0.28431   0.00311   0.07396   1.000
    O671    O    0.29367   0.08278   0.01217   1.000
    O672    O    0.28431   0.07396   0.00311   1.000
    N673    N    0.69608   0.91411   0.36208   1.000
    O674    O    0.66693   0.91213   0.35267   1.000
    O675    O    0.68053   0.92688   0.32914   1.000
    O676    O    0.70631   0.90382   0.39701   1.000
    O677    O    0.72205   0.91784   0.37522   1.000
    N678    N    0.17314   0.28583   0.84016   1.000
    O679    O    0.19860   0.28732   0.79733   1.000
    O680    O    0.14862   0.28485   0.88348   1.000
    O681    O    0.19602   0.26269   0.81096   1.000
    O682    O    0.15333   0.30845   0.86904   1.000
    N683    N    0.54914   0.40984   0.96417   1.000
    O684    O    0.53325   0.45267   0.96268   1.000
    O685    O    0.58082   0.38096   0.94155   1.000
    O686    O    0.56695   0.36652   0.96515   1.000
    O687    O    0.51968   0.43904   0.98731   1.000
    N688    N    0.07686   0.96417   0.40984   1.000
    O689    O    0.05398   0.98731   0.43904   1.000
    O690    O    0.09667   0.94155   0.38096   1.000
    O691    O    0.05140   0.96268   0.45267   1.000
    O692    O    0.10138   0.96515   0.36652   1.000
    N693    N    0.95117   0.95117   0.61557   1.000
    O694    O    0.95498   0.97710   0.57277   1.000
    O695    O    0.92586   0.94800   0.65881   1.000
    O696    O    0.97710   0.95498   0.57277   1.000
    O697    O    0.94800   0.92586   0.65881   1.000
    N698    N    0.55773   0.55773   0.44227   1.000
    O699    O    0.59105   0.52236   0.43223   1.000
    O700    O    0.52236   0.59105   0.45435   1.000
    O701    O    0.52236   0.59105   0.43223   1.000
    O702    O    0.59105   0.52236   0.45435   1.000
    N703    N    0.95117   0.48208   0.61557   1.000
    O704    O    0.94800   0.46732   0.65881   1.000
    O705    O    0.97710   0.49514   0.57277   1.000
    O706    O    0.95498   0.49514   0.57277   1.000
    O707    O    0.92586   0.46732   0.65881   1.000
    N708    N    0.69608   0.02773   0.36208   1.000
    O709    O    0.70631   0.99286   0.39701   1.000
    O710    O    0.68053   0.06345   0.32914   1.000
    O711    O    0.72205   0.98489   0.37522   1.000
    O712    O    0.66693   0.06827   0.35267   1.000
    N713    N    0.36208   0.02773   0.69608   1.000
    O714    O    0.37522   0.98489   0.72205   1.000
    O715    O    0.39701   0.99286   0.70631   1.000
    O716    O    0.35267   0.06827   0.66693   1.000
    O717    O    0.32914   0.06345   0.68053   1.000
    N718    N    0.04438   0.62502   0.04438   1.000
    O719    O    0.00311   0.63861   0.07396   1.000
    O720    O    0.07396   0.63861   0.00311   1.000
    O721    O    0.08278   0.61138   0.01217   1.000
    O722    O    0.01217   0.61139   0.08278   1.000
    N723    N    0.33589   0.22227   0.55392   1.000
    O724    O    0.34618   0.25714   0.54369   1.000
    O725    O    0.33787   0.18173   0.58307   1.000
    O726    O    0.33216   0.26511   0.52795   1.000
    O727    O    0.32312   0.18655   0.56947   1.000
    N728    N    0.62498   0.20562   0.96380   1.000
    O729    O    0.61139   0.24689   0.96569   1.000
    O730    O    0.61139   0.17604   0.96569   1.000
    O731    O    0.63862   0.16722   0.95634   1.000
    O732    O    0.63862   0.23783   0.95634   1.000
    N733    N    0.86199   0.86199   0.53309   1.000
    O734    O    0.82715   0.84929   0.56624   1.000
    O735    O    0.84929   0.82715   0.56624   1.000
    O736    O    0.87388   0.89604   0.49751   1.000
    O737    O    0.89604   0.87388   0.49751   1.000
    N738    N    0.33589   0.88792   0.55392   1.000
    O739    O    0.33216   0.87478   0.52795   1.000
    O740    O    0.33787   0.89733   0.58307   1.000
    O741    O    0.32312   0.92086   0.56947   1.000
    O742    O    0.34618   0.85299   0.54369   1.000
    N743    N    0.96379   0.62498   0.20562   1.000
    O744    O    0.95633   0.63861   0.23783   1.000
    O745    O    0.95633   0.63862   0.16722   1.000
    O746    O    0.96569   0.61139   0.24689   1.000
    O747    O    0.96569   0.61139   0.17604   1.000
    N748    N    0.02773   0.91411   0.36208   1.000
    O749    O    0.06345   0.92688   0.32914   1.000
    O750    O    0.99286   0.90382   0.39701   1.000
    O751    O    0.98489   0.91784   0.37522   1.000
    O752    O    0.06827   0.91213   0.35267   1.000
    N753    N    0.31154   0.83087   0.42880   1.000
    O754    O    0.31713   0.84128   0.38604   1.000
    O755    O    0.30900   0.81960   0.47117   1.000
    O756    O    0.30900   0.81960   0.40023   1.000
    O757    O    0.31713   0.84128   0.45555   1.000
    N758    N    0.28583   0.17314   0.70086   1.000
    O759    O    0.26269   0.19602   0.73032   1.000
    O760    O    0.30845   0.15333   0.66918   1.000
    O761    O    0.28485   0.14862   0.68305   1.000
    O762    O    0.28732   0.19860   0.71675   1.000
    N763    N    0.38801   0.50706   0.38801   1.000
    O764    O    0.40071   0.49269   0.42285   1.000
    O765    O    0.35396   0.51743   0.37612   1.000
    O766    O    0.42285   0.49269   0.40071   1.000
    O767    O    0.37612   0.51743   0.35396   1.000
    N768    N    0.96417   0.40984   0.07686   1.000
    O769    O    0.94155   0.38096   0.09667   1.000
    O770    O    0.98731   0.43904   0.05398   1.000
    O771    O    0.96515   0.36652   0.10138   1.000
    O772    O    0.96268   0.45267   0.05140   1.000
    N773    N    0.40984   0.07686   0.96417   1.000
    O774    O    0.36652   0.10138   0.96515   1.000
    O775    O    0.45267   0.05140   0.96268   1.000
    O776    O    0.43904   0.05398   0.98731   1.000
    O777    O    0.38096   0.09667   0.94155   1.000
    N778    N    0.02773   0.36208   0.69608   1.000
    O779    O    0.06345   0.32914   0.68053   1.000
    O780    O    0.06827   0.35267   0.66693   1.000
    O781    O    0.99286   0.39701   0.70631   1.000
    O782    O    0.98489   0.37522   0.72205   1.000
    N783    N    0.42880   0.31154   0.83087   1.000
    O784    O    0.47117   0.30900   0.81960   1.000
    O785    O    0.40023   0.30900   0.81960   1.000
    O786    O    0.38604   0.31713   0.84128   1.000
    O787    O    0.45555   0.31713   0.84128   1.000
    N788    N    0.93992   0.12500   0.31008   1.000
    O789    O    0.94648   0.12769   0.30900   1.000
    O790    O    0.94100   0.12231   0.30352   1.000
    O791    O    0.93228   0.12500   0.31772   1.000
    N792    N    0.84016   0.28583   0.70086   1.000
    O793    O    0.86904   0.30845   0.66918   1.000
    O794    O    0.81096   0.26269   0.73032   1.000
    O795    O    0.79733   0.28732   0.71675   1.000
    O796    O    0.88348   0.28485   0.68305   1.000
    N797    N    0.86199   0.74294   0.53309   1.000
    O798    O    0.82715   0.75731   0.56624   1.000
    O799    O    0.87388   0.73257   0.49751   1.000
    O800    O    0.89604   0.73257   0.49751   1.000
    O801    O    0.84929   0.75731   0.56624   1.000
    N802    N    0.53309   0.86199   0.74294   1.000
    O803    O    0.49751   0.89604   0.73257   1.000
    O804    O    0.56624   0.84929   0.75731   1.000
    O805    O    0.49751   0.87388   0.73257   1.000
    O806    O    0.56624   0.82715   0.75731   1.000
    N807    N    0.40984   0.54914   0.96417   1.000
    O808    O    0.45267   0.53325   0.96268   1.000
    O809    O    0.38096   0.58082   0.94155   1.000
    O810    O    0.36652   0.56695   0.96515   1.000
    O811    O    0.43904   0.51968   0.98731   1.000
    N812    N    0.31154   0.42880   0.42880   1.000
    O813    O    0.31713   0.38604   0.45555   1.000
    O814    O    0.30900   0.47117   0.40023   1.000
    O815    O    0.30900   0.40023   0.47117   1.000
    O816    O    0.31713   0.45555   0.38604   1.000
    N817    N    0.12500   0.62500   0.31008   1.000
    O818    O    0.12769   0.61682   0.30900   1.000
    O819    O    0.12500   0.62500   0.31772   1.000
    O820    O    0.12231   0.63317   0.30352   1.000
    N821    N    0.36208   0.91411   0.02773   1.000
    O822    O    0.35267   0.91213   0.06827   1.000
    O823    O    0.37522   0.91784   0.98489   1.000
    O824    O    0.39701   0.90382   0.99286   1.000
    O825    O    0.32914   0.92688   0.06345   1.000
    N826    N    0.82120   0.93846   0.41913   1.000
    O827    O    0.79445   0.93287   0.40872   1.000
    O828    O    0.84977   0.94100   0.43040   1.000
    O829    O    0.77883   0.94100   0.43040   1.000
    O830    O    0.86396   0.93287   0.40872   1.000
    N831    N    0.74294   0.86199   0.53309   1.000
    O832    O    0.73257   0.87388   0.49751   1.000
    O833    O    0.75731   0.84929   0.56624   1.000
    O834    O    0.73257   0.89604   0.49751   1.000
    O835    O    0.75731   0.82715   0.56624   1.000
    N836    N    0.91411   0.36208   0.02773   1.000
    O837    O    0.91784   0.37522   0.98489   1.000
    O838    O    0.91213   0.35267   0.06827   1.000
    O839    O    0.90382   0.39701   0.99286   1.000
    O840    O    0.92688   0.32914   0.06345   1.000
    N841    N    0.36208   0.91411   0.69608   1.000
    O842    O    0.39701   0.90382   0.70631   1.000
    O843    O    0.37522   0.91784   0.72205   1.000
    O844    O    0.35267   0.91213   0.66693   1.000
    O845    O    0.32914   0.92688   0.68053   1.000
    N846    N    0.41913   0.93846   0.82120   1.000
    O847    O    0.43040   0.94100   0.84977   1.000
    O848    O    0.43040   0.94100   0.77883   1.000
    O849    O    0.40872   0.93287   0.86396   1.000
    O850    O    0.40872   0.93287   0.79445   1.000
    N851    N    0.54914   0.40984   0.07686   1.000
    O852    O    0.58082   0.38096   0.09667   1.000
    O853    O    0.56695   0.36652   0.10138   1.000
    O854    O    0.53325   0.45267   0.05140   1.000
    O855    O    0.51968   0.43904   0.05398   1.000
    N856    N    0.44227   0.55773   0.44227   1.000
    O857    O    0.43223   0.52236   0.45435   1.000
    O858    O    0.45435   0.52236   0.43223   1.000
    O859    O    0.45435   0.59105   0.43223   1.000
    O860    O    0.43223   0.59105   0.45435   1.000
    N861    N    0.82086   0.33063   0.33063   1.000
    O862    O    0.82956   0.32941   0.32941   1.000
    O863    O    0.81652   0.32461   0.33788   1.000
    O864    O    0.81651   0.33788   0.32461   1.000
    N865    N    0.76792   0.29883   0.29883   1.000
    O866    O    0.75486   0.27290   0.29502   1.000
    O867    O    0.78268   0.30200   0.32414   1.000
    O868    O    0.75486   0.29502   0.27290   1.000
    O869    O    0.78268   0.32414   0.30200   1.000
    N870    N    0.07686   0.54914   0.96417   1.000
    O871    O    0.05398   0.51968   0.98731   1.000
    O872    O    0.05140   0.53325   0.96268   1.000
    O873    O    0.10138   0.56695   0.96515   1.000
    O874    O    0.09667   0.58082   0.94155   1.000
    N875    N    0.28583   0.84016   0.17314   1.000
    O876    O    0.30845   0.86904   0.15333   1.000
    O877    O    0.28485   0.88348   0.14862   1.000
    O878    O    0.28732   0.79733   0.19860   1.000
    O879    O    0.26269   0.81096   0.19602   1.000
    N880    N    0.28621   0.04438   0.62503   1.000
    O881    O    0.29367   0.01217   0.61139   1.000
    O882    O    0.28431   0.07396   0.63861   1.000
    O883    O    0.29367   0.08278   0.61139   1.000
    O884    O    0.28431   0.00311   0.63861   1.000
    N885    N    0.07686   0.40984   0.54914   1.000
    O886    O    0.10138   0.36652   0.56695   1.000
    O887    O    0.09667   0.38096   0.58082   1.000
    O888    O    0.05398   0.43904   0.51968   1.000
    O889    O    0.05140   0.45267   0.53325   1.000
    N890    N    0.42880   0.31154   0.42880   1.000
    O891    O    0.45555   0.31713   0.38604   1.000
    O892    O    0.38604   0.31713   0.45555   1.000
    O893    O    0.40023   0.30900   0.47117   1.000
    O894    O    0.47117   0.30900   0.40023   1.000
    N895    N    0.88792   0.33589   0.55392   1.000
    O896    O    0.87478   0.33216   0.52795   1.000
    O897    O    0.92086   0.32312   0.56947   1.000
    O898    O    0.85299   0.34618   0.54369   1.000
    O899    O    0.89733   0.33787   0.58307   1.000
    N900    N    0.04438   0.04438   0.28621   1.000
    O901    O    0.01217   0.08278   0.29367   1.000
    O902    O    0.08278   0.01217   0.29367   1.000
    O903    O    0.00311   0.07396   0.28431   1.000
    O904    O    0.07396   0.00311   0.28431   1.000
    N905    N    0.48208   0.61557   0.95117   1.000
    O906    O    0.49514   0.57277   0.95498   1.000
    O907    O    0.49514   0.57277   0.97710   1.000
    O908    O    0.46732   0.65881   0.94800   1.000
    O909    O    0.46732   0.65881   0.92586   1.000
    N910    N    0.22227   0.33589   0.88792   1.000
    O911    O    0.26511   0.33216   0.87478   1.000
    O912    O    0.25714   0.34618   0.85299   1.000
    O913    O    0.18173   0.33787   0.89733   1.000
    O914    O    0.18655   0.32312   0.92086   1.000
    N915    N    0.96417   0.40984   0.54914   1.000
    O916    O    0.94155   0.38096   0.58082   1.000
    O917    O    0.96515   0.36652   0.56695   1.000
    O918    O    0.98731   0.43904   0.51968   1.000
    O919    O    0.96268   0.45267   0.53325   1.000
    N920    N    0.70086   0.28583   0.17314   1.000
    O921    O    0.73032   0.26269   0.19602   1.000
    O922    O    0.68305   0.28485   0.14862   1.000
    O923    O    0.71675   0.28732   0.19860   1.000
    O924    O    0.66918   0.30845   0.15333   1.000
    N925    N    0.71691   0.38801   0.38801   1.000
    O926    O    0.68376   0.40071   0.42285   1.000
    O927    O    0.75249   0.35396   0.37612   1.000
    O928    O    0.68376   0.42285   0.40071   1.000
    O929    O    0.75249   0.37612   0.35396   1.000
    N930    N    0.63443   0.76792   0.29883   1.000
    O931    O    0.59119   0.78268   0.32414   1.000
    O932    O    0.67723   0.75486   0.29502   1.000
    O933    O    0.59119   0.78268   0.30200   1.000
    O934    O    0.67723   0.75486   0.27290   1.000
    N935    N    0.69227   0.80773   0.69227   1.000
    O936    O    0.72764   0.79565   0.65895   1.000
    O937    O    0.65895   0.81777   0.72764   1.000
    O938    O    0.65895   0.79565   0.72764   1.000
    O939    O    0.72764   0.81777   0.65895   1.000
    N940    N    0.50707   0.38801   0.38801   1.000
    O941    O    0.51743   0.37612   0.35396   1.000
    O942    O    0.49269   0.42285   0.40071   1.000
    O943    O    0.51743   0.35396   0.37612   1.000
    O944    O    0.49269   0.40071   0.42285   1.000
    N945    N    0.76792   0.29883   0.63443   1.000
    O946    O    0.78268   0.32414   0.59119   1.000
    O947    O    0.75486   0.29502   0.67723   1.000
    O948    O    0.75486   0.27290   0.67723   1.000
    O949    O    0.78268   0.30200   0.59119   1.000
    N950    N    0.53309   0.86199   0.86199   1.000
    O951    O    0.49751   0.89604   0.87388   1.000
    O952    O    0.56624   0.84929   0.82715   1.000
    O953    O    0.56624   0.82715   0.84929   1.000
    O954    O    0.49751   0.87388   0.89604   1.000
    N955    N    0.62502   0.04438   0.28621   1.000
    O956    O    0.63861   0.00311   0.28431   1.000
    O957    O    0.61138   0.01217   0.29367   1.000
    O958    O    0.63861   0.07396   0.28431   1.000
    O959    O    0.61139   0.08278   0.29367   1.000
    N960    N    0.63443   0.29883   0.76792   1.000
    O961    O    0.67723   0.27290   0.75486   1.000
    O962    O    0.59119   0.30200   0.78268   1.000
    O963    O    0.67723   0.29502   0.75486   1.000
    O964    O    0.59119   0.32414   0.78268   1.000
    N965    N    0.84016   0.70086   0.28583   1.000
    O966    O    0.79733   0.71675   0.28732   1.000
    O967    O    0.86904   0.66918   0.30845   1.000
    O968    O    0.81096   0.73032   0.26269   1.000
    O969    O    0.88348   0.68305   0.28485   1.000
    N970    N    0.70086   0.17314   0.28583   1.000
    O971    O    0.66918   0.15333   0.30845   1.000
    O972    O    0.68305   0.14862   0.28485   1.000
    O973    O    0.73032   0.19602   0.26269   1.000
    O974    O    0.71675   0.19860   0.28732   1.000
    N975    N    0.29883   0.63443   0.29883   1.000
    O976    O    0.32414   0.59119   0.30200   1.000
    O977    O    0.30200   0.59119   0.32414   1.000
    O978    O    0.27290   0.67723   0.29502   1.000
    O979    O    0.29502   0.67723   0.27290   1.000
    N980    N    0.40984   0.96417   0.07686   1.000
    O981    O    0.43904   0.98731   0.05398   1.000
    O982    O    0.36652   0.96515   0.10138   1.000
    O983    O    0.45267   0.96268   0.05140   1.000
    O984    O    0.38096   0.94155   0.09667   1.000
    N985    N    0.82120   0.41913   0.82120   1.000
    O986    O    0.86396   0.40872   0.79445   1.000
    O987    O    0.79445   0.40872   0.86396   1.000
    O988    O    0.77883   0.43040   0.84977   1.000
    O989    O    0.84977   0.43040   0.77883   1.000
    N990    N    0.82120   0.82120   0.93846   1.000
    O991    O    0.77883   0.84977   0.94100   1.000
    O992    O    0.79445   0.86396   0.93287   1.000
    O993    O    0.84977   0.77883   0.94100   1.000
    O994    O    0.86396   0.79445   0.93287   1.000
    N995    N    0.33589   0.88792   0.22227   1.000
    O996    O    0.34618   0.85299   0.25714   1.000
    O997    O    0.33787   0.89733   0.18173   1.000
    O998    O    0.32312   0.92086   0.18655   1.000
    O999    O    0.33216   0.87478   0.26511   1.000
    N1000   N    0.38801   0.71691   0.38801   1.000
    O1001   O    0.42285   0.68376   0.40071   1.000
    O1002   O    0.40071   0.68376   0.42285   1.000
    O1003   O    0.35396   0.75249   0.37612   1.000
    O1004   O    0.37612   0.75249   0.35396   1.000
    N1005   N    0.82086   0.33063   0.51787   1.000
    O1006   O    0.82956   0.32941   0.51162   1.000
    O1007   O    0.81652   0.33788   0.52099   1.000
    O1008   O    0.81651   0.32461   0.52099   1.000
    N1009   N    0.04438   0.28621   0.62503   1.000
    O1010   O    0.00311   0.28431   0.63861   1.000
    O1011   O    0.08278   0.29367   0.61139   1.000
    O1012   O    0.01217   0.29367   0.61139   1.000
    O1013   O    0.07396   0.28431   0.63861   1.000
    N1014   N    0.40984   0.07686   0.54914   1.000
    O1015   O    0.43904   0.05398   0.51968   1.000
    O1016   O    0.38096   0.09667   0.58082   1.000
    O1017   O    0.36652   0.10138   0.56695   1.000
    O1018   O    0.45267   0.05140   0.53325   1.000
    N1019   N    0.54914   0.07686   0.96417   1.000
    O1020   O    0.58082   0.09667   0.94155   1.000
    O1021   O    0.56695   0.10138   0.96515   1.000
    O1022   O    0.51968   0.05398   0.98731   1.000
    O1023   O    0.53325   0.05140   0.96268   1.000
    N1024   N    0.28583   0.70086   0.84016   1.000
    O1025   O    0.28732   0.71675   0.79733   1.000
    O1026   O    0.26269   0.73032   0.81096   1.000
    O1027   O    0.30845   0.66918   0.86904   1.000
    O1028   O    0.28485   0.68305   0.88348   1.000
    N1029   N    0.29883   0.76792   0.29883   1.000
    O1030   O    0.27290   0.75486   0.29502   1.000
    O1031   O    0.32414   0.78268   0.30200   1.000
    O1032   O    0.30200   0.78268   0.32414   1.000
    O1033   O    0.29502   0.75486   0.27290   1.000
    N1034   N    0.96379   0.20562   0.20562   1.000
    O1035   O    0.96569   0.17604   0.24689   1.000
    O1036   O    0.95633   0.16722   0.23783   1.000
    O1037   O    0.96569   0.24689   0.17604   1.000
    O1038   O    0.95634   0.23783   0.16722   1.000
    N1039   N    0.96417   0.07686   0.40984   1.000
    O1040   O    0.98731   0.05398   0.43904   1.000
    O1041   O    0.94155   0.09667   0.38096   1.000
    O1042   O    0.96268   0.05140   0.45267   1.000
    O1043   O    0.96515   0.10138   0.36652   1.000
    N1044   N    0.28583   0.84016   0.70086   1.000
    O1045   O    0.26269   0.81096   0.73032   1.000
    O1046   O    0.28732   0.79733   0.71675   1.000
    O1047   O    0.28485   0.88348   0.68305   1.000
    O1048   O    0.30845   0.86904   0.66918   1.000
    N1049   N    0.84016   0.70086   0.17314   1.000
    O1050   O    0.79733   0.71675   0.19860   1.000
    O1051   O    0.88348   0.68305   0.14862   1.000
    O1052   O    0.81096   0.73032   0.19602   1.000
    O1053   O    0.86904   0.66918   0.15333   1.000
    N1054   N    0.74843   0.25157   0.25157   1.000
    O1055   O    0.75386   0.24614   0.24614   1.000
    O1056   O    0.74571   0.24766   0.26092   1.000
    O1057   O    0.74571   0.26092   0.24766   1.000
    N1058   N    0.38801   0.71691   0.50707   1.000
    O1059   O    0.40071   0.68376   0.49269   1.000
    O1060   O    0.35396   0.75249   0.51743   1.000
    O1061   O    0.37612   0.75249   0.51743   1.000
    O1062   O    0.42285   0.68376   0.49269   1.000
    N1063   N    0.88792   0.22227   0.55392   1.000
    O1064   O    0.87478   0.26511   0.52795   1.000
    O1065   O    0.89733   0.18173   0.58307   1.000
    O1066   O    0.92086   0.18655   0.56947   1.000
    O1067   O    0.85299   0.25714   0.54369   1.000
    N1068   N    0.29883   0.63443   0.76792   1.000
    O1069   O    0.29502   0.67723   0.75486   1.000
    O1070   O    0.32414   0.59119   0.78268   1.000
    O1071   O    0.27290   0.67723   0.75486   1.000
    O1072   O    0.30200   0.59119   0.78268   1.000
    N1073   N    0.22227   0.33589   0.55392   1.000
    O1074   O    0.26511   0.33216   0.52795   1.000
    O1075   O    0.18655   0.32312   0.56947   1.000
    O1076   O    0.18173   0.33787   0.58307   1.000
    O1077   O    0.25714   0.34618   0.54369   1.000
    N1078   N    0.82086   0.51787   0.33063   1.000
    O1079   O    0.81651   0.52099   0.32461   1.000
    O1080   O    0.82956   0.51162   0.32941   1.000
    O1081   O    0.81652   0.52099   0.33788   1.000
    N1082   N    0.80773   0.69227   0.80773   1.000
    O1083   O    0.79565   0.65895   0.81777   1.000
    O1084   O    0.81777   0.65895   0.79565   1.000
    O1085   O    0.81777   0.72764   0.79565   1.000
    O1086   O    0.79565   0.72764   0.81777   1.000
    N1087   N    0.95117   0.48208   0.95117   1.000
    O1088   O    0.92586   0.46732   0.94800   1.000
    O1089   O    0.97710   0.49514   0.95498   1.000
    O1090   O    0.94800   0.46732   0.92586   1.000
    O1091   O    0.95498   0.49514   0.97710   1.000
    N1092   N    0.20562   0.62498   0.96380   1.000
    O1093   O    0.23783   0.63861   0.95634   1.000
    O1094   O    0.24689   0.61139   0.96569   1.000
    O1095   O    0.16722   0.63861   0.95634   1.000
    O1096   O    0.17604   0.61139   0.96569   1.000
    N1097   N    0.70086   0.84016   0.28583   1.000
    O1098   O    0.68305   0.88348   0.28485   1.000
    O1099   O    0.66918   0.86904   0.30845   1.000
    O1100   O    0.73032   0.81096   0.26269   1.000
    O1101   O    0.71675   0.79733   0.28732   1.000
    N1102   N    0.38801   0.38801   0.71691   1.000
    O1103   O    0.35396   0.37612   0.75249   1.000
    O1104   O    0.37612   0.35396   0.75249   1.000
    O1105   O    0.40071   0.42285   0.68376   1.000
    O1106   O    0.42285   0.40071   0.68376   1.000
    N1107   N    0.62502   0.04438   0.04438   1.000
    O1108   O    0.61138   0.01217   0.08278   1.000
    O1109   O    0.61138   0.08278   0.01217   1.000
    O1110   O    0.63861   0.07396   0.00311   1.000
    O1111   O    0.63861   0.00311   0.07396   1.000
    N1112   N    0.07686   0.96417   0.54914   1.000
    O1113   O    0.05398   0.98731   0.51968   1.000
    O1114   O    0.05140   0.96268   0.53325   1.000
    O1115   O    0.09667   0.94155   0.58082   1.000
    O1116   O    0.10138   0.96515   0.56695   1.000
    N1117   N    0.22227   0.55392   0.88792   1.000
    O1118   O    0.26511   0.52795   0.87478   1.000
    O1119   O    0.18655   0.56947   0.92086   1.000
    O1120   O    0.18173   0.58307   0.89733   1.000
    O1121   O    0.25714   0.54369   0.85299   1.000
    N1122   N    0.31154   0.42880   0.83087   1.000
    O1123   O    0.30900   0.40023   0.81960   1.000
    O1124   O    0.31713   0.38604   0.84128   1.000
    O1125   O    0.31713   0.45555   0.84128   1.000
    O1126   O    0.30900   0.47117   0.81960   1.000
    N1127   N    0.04438   0.62502   0.28621   1.000
    O1128   O    0.01217   0.61138   0.29367   1.000
    O1129   O    0.07396   0.63861   0.28431   1.000
    O1130   O    0.00311   0.63861   0.28431   1.000
    O1131   O    0.08278   0.61138   0.29367   1.000
    N1132   N    0.53309   0.74294   0.86199   1.000
    O1133   O    0.56624   0.75731   0.82715   1.000
    O1134   O    0.56624   0.75731   0.84929   1.000
    O1135   O    0.49751   0.73257   0.89604   1.000
    O1136   O    0.49751   0.73257   0.87388   1.000
    N1137   N    0.48208   0.95117   0.95117   1.000
    O1138   O    0.46732   0.94800   0.92586   1.000
    O1139   O    0.49514   0.97710   0.95498   1.000
    O1140   O    0.49514   0.95498   0.97710   1.000
    O1141   O    0.46732   0.92586   0.94800   1.000
    N1142   N    0.86199   0.86199   0.74294   1.000
    O1143   O    0.89604   0.87388   0.73257   1.000
    O1144   O    0.84929   0.82715   0.75731   1.000
    O1145   O    0.82715   0.84929   0.75731   1.000
    O1146   O    0.87388   0.89604   0.73257   1.000
    N1147   N    0.95117   0.95117   0.48208   1.000
    O1148   O    0.97710   0.95498   0.49514   1.000
    O1149   O    0.95498   0.97710   0.49514   1.000
    O1150   O    0.94800   0.92586   0.46732   1.000
    O1151   O    0.92586   0.94800   0.46732   1.000
    N1152   N    0.79586   0.61241   0.79586   1.000
    O1153   O    0.79143   0.61243   0.80470   1.000
    O1154   O    0.79143   0.61243   0.79143   1.000
    O1155   O    0.80469   0.61243   0.79143   1.000
    N1156   N    0.74293   0.53309   0.86199   1.000
    O1157   O    0.73257   0.49751   0.87388   1.000
    O1158   O    0.75731   0.56624   0.84929   1.000
    O1159   O    0.73257   0.49751   0.89604   1.000
    O1160   O    0.75731   0.56624   0.82715   1.000
    N1161   N    0.80773   0.80773   0.69227   1.000
    O1162   O    0.81777   0.79565   0.72764   1.000
    O1163   O    0.79565   0.81777   0.72764   1.000
    O1164   O    0.79565   0.81777   0.65895   1.000
    O1165   O    0.81777   0.79565   0.65895   1.000
    N1166   N    0.62500   0.12500   0.31008   1.000
    O1167   O    0.61682   0.12769   0.30900   1.000
    O1168   O    0.63318   0.12231   0.30352   1.000
    O1169   O    0.62500   0.12500   0.31772   1.000
    N1170   N    0.86199   0.53309   0.86199   1.000
    O1171   O    0.87388   0.49751   0.89604   1.000
    O1172   O    0.89604   0.49751   0.87388   1.000
    O1173   O    0.82715   0.56624   0.84929   1.000
    O1174   O    0.84929   0.56624   0.82715   1.000
    N1175   N    0.48208   0.95117   0.61557   1.000
    O1176   O    0.46732   0.92586   0.65881   1.000
    O1177   O    0.49514   0.97710   0.57277   1.000
    O1178   O    0.46732   0.94800   0.65881   1.000
    O1179   O    0.49514   0.95498   0.57277   1.000
    N1180   N    0.74294   0.86199   0.86199   1.000
    O1181   O    0.75731   0.82715   0.84929   1.000
    O1182   O    0.73257   0.87388   0.89604   1.000
    O1183   O    0.73257   0.89604   0.87388   1.000
    O1184   O    0.75731   0.84929   0.82715   1.000
    N1185   N    0.61557   0.95117   0.95117   1.000
    O1186   O    0.65881   0.94800   0.92586   1.000
    O1187   O    0.57277   0.97710   0.95498   1.000
    O1188   O    0.65881   0.92586   0.94800   1.000
    O1189   O    0.57277   0.95498   0.97710   1.000
    N1190   N    0.17314   0.84016   0.70086   1.000
    O1191   O    0.19602   0.81096   0.73032   1.000
    O1192   O    0.15333   0.86904   0.66918   1.000
    O1193   O    0.14862   0.88348   0.68305   1.000
    O1194   O    0.19860   0.79733   0.71675   1.000
    N1195   N    0.07686   0.40984   0.96417   1.000
    O1196   O    0.05398   0.43904   0.98731   1.000
    O1197   O    0.05140   0.45267   0.96268   1.000
    O1198   O    0.10138   0.36652   0.96515   1.000
    O1199   O    0.09667   0.38096   0.94155   1.000
    N1200   N    0.45414   0.45414   0.45414   1.000
    O1201   O    0.44531   0.45857   0.45857   1.000
    O1202   O    0.45857   0.45857   0.44531   1.000
    O1203   O    0.45857   0.44530   0.45857   1.000
    N1204   N    0.20562   0.62497   0.20562   1.000
    O1205   O    0.17604   0.61139   0.24689   1.000
    O1206   O    0.24689   0.61139   0.17604   1.000
    O1207   O    0.16722   0.63861   0.23783   1.000
    O1208   O    0.23783   0.63861   0.16722   1.000
    N1209   N    0.91411   0.36208   0.69608   1.000
    O1210   O    0.90382   0.39701   0.70631   1.000
    O1211   O    0.92688   0.32914   0.68053   1.000
    O1212   O    0.91213   0.35267   0.66693   1.000
    O1213   O    0.91784   0.37522   0.72205   1.000
    N1214   N    0.42914   0.91937   0.73213   1.000
    O1215   O    0.42044   0.92059   0.73839   1.000
    O1216   O    0.43349   0.92539   0.72901   1.000
    O1217   O    0.43348   0.91212   0.72901   1.000
    N1218   N    0.93992   0.62500   0.31008   1.000
    O1219   O    0.94100   0.63317   0.30352   1.000
    O1220   O    0.94648   0.61682   0.30900   1.000
    O1221   O    0.93228   0.62500   0.31772   1.000
    N1222   N    0.91937   0.73213   0.42914   1.000
    O1223   O    0.92059   0.73839   0.42044   1.000
    O1224   O    0.91212   0.72901   0.43349   1.000
    O1225   O    0.92539   0.72901   0.43349   1.000
    N1226   N    0.17314   0.70086   0.28583   1.000
    O1227   O    0.19602   0.73032   0.26269   1.000
    O1228   O    0.15333   0.66918   0.30845   1.000
    O1229   O    0.19860   0.71675   0.28732   1.000
    O1230   O    0.14862   0.68305   0.28485   1.000
    N1231   N    0.84016   0.17314   0.28583   1.000
    O1232   O    0.79733   0.19860   0.28732   1.000
    O1233   O    0.81096   0.19602   0.26269   1.000
    O1234   O    0.86904   0.15333   0.30845   1.000
    O1235   O    0.88348   0.14862   0.28485   1.000
    N1236   N    0.22227   0.55392   0.33589   1.000
    O1237   O    0.18655   0.56947   0.32312   1.000
    O1238   O    0.25714   0.54369   0.34618   1.000
    O1239   O    0.18173   0.58307   0.33787   1.000
    O1240   O    0.26511   0.52795   0.33216   1.000
    N1241   N    0.42880   0.83087   0.42880   1.000
    O1242   O    0.38604   0.84128   0.45555   1.000
    O1243   O    0.47117   0.81960   0.40023   1.000
    O1244   O    0.45555   0.84128   0.38604   1.000
    O1245   O    0.40023   0.81960   0.47117   1.000
    N1246   N    0.31008   0.93992   0.12500   1.000
    O1247   O    0.30352   0.94100   0.12231   1.000
    O1248   O    0.30900   0.94648   0.12769   1.000
    O1249   O    0.31772   0.93228   0.12500   1.000
    N1250   N    0.33589   0.55392   0.88792   1.000
    O1251   O    0.33787   0.58307   0.89733   1.000
    O1252   O    0.32312   0.56947   0.92086   1.000
    O1253   O    0.34618   0.54369   0.85299   1.000
    O1254   O    0.33216   0.52795   0.87478   1.000
    N1255   N    0.83087   0.31154   0.42880   1.000
    O1256   O    0.84128   0.31713   0.45555   1.000
    O1257   O    0.84128   0.31713   0.38604   1.000
    O1258   O    0.81960   0.30900   0.40023   1.000
    O1259   O    0.81960   0.30900   0.47117   1.000
    N1260   N    0.91411   0.02773   0.36208   1.000
    O1261   O    0.90382   0.99286   0.39701   1.000
    O1262   O    0.92688   0.06345   0.32914   1.000
    O1263   O    0.91784   0.98489   0.37522   1.000
    O1264   O    0.91213   0.06827   0.35267   1.000
    N1265   N    0.17314   0.70086   0.84016   1.000
    O1266   O    0.19602   0.73032   0.81096   1.000
    O1267   O    0.19860   0.71675   0.79733   1.000
    O1268   O    0.14862   0.68305   0.88348   1.000
    O1269   O    0.15333   0.66918   0.86904   1.000
    N1270   N    0.20562   0.96379   0.62498   1.000
    O1271   O    0.16722   0.95633   0.63862   1.000
    O1272   O    0.24689   0.96569   0.61139   1.000
    O1273   O    0.17604   0.96569   0.61139   1.000
    O1274   O    0.23783   0.95633   0.63862   1.000
    N1275   N    0.74843   0.74843   0.25157   1.000
    O1276   O    0.75386   0.75387   0.24614   1.000
    O1277   O    0.74571   0.74571   0.24766   1.000
    O1278   O    0.74571   0.74571   0.26092   1.000
    N1279   N    0.33063   0.82086   0.33063   1.000
    O1280   O    0.32941   0.82956   0.32941   1.000
    O1281   O    0.32461   0.81651   0.33788   1.000
    O1282   O    0.33788   0.81652   0.32461   1.000
    N1283   N    0.74843   0.25157   0.74843   1.000
    O1284   O    0.75387   0.24614   0.75387   1.000
    O1285   O    0.74571   0.24766   0.74571   1.000
    O1286   O    0.74571   0.26092   0.74571   1.000
    N1287   N    0.62500   0.31008   0.12500   1.000
    O1288   O    0.63318   0.30352   0.12231   1.000
    O1289   O    0.62500   0.31772   0.12500   1.000
    O1290   O    0.61683   0.30900   0.12769   1.000
    N1291   N    0.62500   0.93992   0.31008   1.000
    O1292   O    0.63318   0.94100   0.30352   1.000
    O1293   O    0.62500   0.93228   0.31772   1.000
    O1294   O    0.61683   0.94648   0.30900   1.000
    N1295   N    0.51787   0.82086   0.33063   1.000
    O1296   O    0.52099   0.81652   0.32461   1.000
    O1297   O    0.51161   0.82956   0.32941   1.000
    O1298   O    0.52099   0.81651   0.33788   1.000
    N1299   N    0.73213   0.91937   0.42914   1.000
    O1300   O    0.73839   0.92059   0.42044   1.000
    O1301   O    0.72901   0.91212   0.43349   1.000
    O1302   O    0.72901   0.92539   0.43349   1.000
    N1303   N    0.63759   0.45414   0.45414   1.000
    O1304   O    0.63757   0.45857   0.44531   1.000
    O1305   O    0.63757   0.45857   0.45857   1.000
    O1306   O    0.63757   0.44530   0.45857   1.000
    N1307   N    0.50157   0.99843   0.99843   1.000
    O1308   O    0.50429   0.98908   0.00234   1.000
    O1309   O    0.50429   0.00234   0.98908   1.000
    O1310   O    0.49613   0.00386   0.00387   1.000
    N1311   N    0.33063   0.33063   0.51787   1.000
    O1312   O    0.32941   0.32941   0.51162   1.000
    O1313   O    0.33788   0.32461   0.52099   1.000
    O1314   O    0.32461   0.33788   0.52099   1.000
    N1315   N    0.62500   0.93992   0.12500   1.000
    O1316   O    0.63318   0.94100   0.12231   1.000
    O1317   O    0.61682   0.94648   0.12769   1.000
    O1318   O    0.62500   0.93228   0.12500   1.000
    N1319   N    0.33063   0.51787   0.33063   1.000
    O1320   O    0.32941   0.51162   0.32941   1.000
    O1321   O    0.33788   0.52099   0.32461   1.000
    O1322   O    0.32461   0.52099   0.33788   1.000
    N1323   N    0.31008   0.12500   0.93992   1.000
    O1324   O    0.30900   0.12769   0.94648   1.000
    O1325   O    0.30352   0.12231   0.94100   1.000
    O1326   O    0.31772   0.12500   0.93228   1.000
    N1327   N    0.91937   0.91937   0.42914   1.000
    O1328   O    0.92059   0.92059   0.42044   1.000
    O1329   O    0.91212   0.92539   0.43349   1.000
    O1330   O    0.92539   0.91212   0.43349   1.000
    N1331   N    0.80773   0.69227   0.69227   1.000
    O1332   O    0.79565   0.72764   0.65895   1.000
    O1333   O    0.81777   0.65895   0.72764   1.000
    O1334   O    0.81777   0.72764   0.65895   1.000
    O1335   O    0.79565   0.65895   0.72764   1.000
    N1336   N    0.42914   0.73213   0.91937   1.000
    O1337   O    0.42044   0.73838   0.92059   1.000
    O1338   O    0.43348   0.72901   0.91212   1.000
    O1339   O    0.43349   0.72901   0.92539   1.000
    N1340   N    0.93992   0.31008   0.62500   1.000
    O1341   O    0.94648   0.30900   0.61683   1.000
    O1342   O    0.93228   0.31772   0.62500   1.000
    O1343   O    0.94100   0.30352   0.63318   1.000
    N1344   N    0.33063   0.82086   0.51787   1.000
    O1345   O    0.32941   0.82956   0.51162   1.000
    O1346   O    0.32461   0.81652   0.52099   1.000
    O1347   O    0.33788   0.81652   0.52099   1.000
    N1348   N    0.31008   0.62500   0.12500   1.000
    O1349   O    0.31772   0.62500   0.12500   1.000
    O1350   O    0.30352   0.63318   0.12231   1.000
    O1351   O    0.30900   0.61682   0.12769   1.000
    N1352   N    0.31008   0.93992   0.62500   1.000
    O1353   O    0.30900   0.94648   0.61683   1.000
    O1354   O    0.31772   0.93228   0.62500   1.000
    O1355   O    0.30352   0.94100   0.63318   1.000
    N1356   N    0.99843   0.50157   0.50157   1.000
    O1357   O    0.00386   0.49613   0.49614   1.000
    O1358   O    0.98908   0.50429   0.50429   1.000
    O1359   O    0.00234   0.50429   0.50429   1.000
    N1360   N    0.25157   0.25157   0.74843   1.000
    O1361   O    0.24613   0.24614   0.75387   1.000
    O1362   O    0.26092   0.24766   0.74571   1.000
    O1363   O    0.24766   0.26092   0.74571   1.000
    N1364   N    0.91937   0.42914   0.91937   1.000
    O1365   O    0.92059   0.42044   0.92059   1.000
    O1366   O    0.92539   0.43348   0.91212   1.000
    O1367   O    0.91212   0.43348   0.92539   1.000
    N1368   N    0.12500   0.31008   0.62500   1.000
    O1369   O    0.12231   0.30352   0.63318   1.000
    O1370   O    0.12769   0.30900   0.61683   1.000
    O1371   O    0.12500   0.31772   0.62500   1.000
    N1372   N    0.12500   0.31008   0.93992   1.000
    O1373   O    0.12769   0.30900   0.94648   1.000
    O1374   O    0.12231   0.30352   0.94100   1.000
    O1375   O    0.12500   0.31772   0.93228   1.000
    N1376   N    0.73213   0.42914   0.91937   1.000
    O1377   O    0.73838   0.42044   0.92059   1.000
    O1378   O    0.72901   0.43348   0.91212   1.000
    O1379   O    0.72901   0.43348   0.92539   1.000
    N1380   N    0.62500   0.12500   0.93992   1.000
    O1381   O    0.63317   0.12231   0.94100   1.000
    O1382   O    0.61682   0.12769   0.94648   1.000
    O1383   O    0.62500   0.12500   0.93228   1.000
    N1384   N    0.79586   0.79586   0.61241   1.000
    O1385   O    0.80470   0.79143   0.61243   1.000
    O1386   O    0.79143   0.80470   0.61243   1.000
    O1387   O    0.79143   0.79143   0.61243   1.000
    N1388   N    0.51787   0.33063   0.82086   1.000
    O1389   O    0.51162   0.32941   0.82956   1.000
    O1390   O    0.52099   0.33788   0.81652   1.000
    O1391   O    0.52099   0.32461   0.81652   1.000
    N1392   N    0.99843   0.50157   0.99843   1.000
    O1393   O    0.00234   0.50429   0.98908   1.000
    O1394   O    0.00387   0.49613   0.00387   1.000
    O1395   O    0.98908   0.50429   0.00234   1.000
    N1396   N    0.42914   0.91937   0.91937   1.000
    O1397   O    0.42044   0.92059   0.92059   1.000
    O1398   O    0.43348   0.92539   0.91212   1.000
    O1399   O    0.43348   0.91212   0.92539   1.000
    N1400   N    0.62500   0.31008   0.93992   1.000
    O1401   O    0.63317   0.30352   0.94100   1.000
    O1402   O    0.61682   0.30900   0.94648   1.000
    O1403   O    0.62500   0.31772   0.93228   1.000
    N1404   N    0.99843   0.99843   0.50157   1.000
    O1405   O    0.98908   0.00234   0.50429   1.000
    O1406   O    0.00387   0.00387   0.49614   1.000
    O1407   O    0.00234   0.98908   0.50429   1.000
    N1408   N    0.45414   0.45414   0.63759   1.000
    O1409   O    0.44531   0.45857   0.63757   1.000
    O1410   O    0.45857   0.45857   0.63757   1.000
    O1411   O    0.45857   0.44530   0.63757   1.000
    N1412   N    0.51787   0.33063   0.33063   1.000
    O1413   O    0.52099   0.33788   0.32461   1.000
    O1414   O    0.51162   0.32941   0.32941   1.000
    O1415   O    0.52099   0.32461   0.33788   1.000
    N1416   N    0.25157   0.74843   0.25157   1.000
    O1417   O    0.24613   0.75387   0.24614   1.000
    O1418   O    0.26092   0.74571   0.24766   1.000
    O1419   O    0.24766   0.74571   0.26092   1.000
    N1420   N    0.93992   0.62500   0.12500   1.000
    O1421   O    0.94648   0.61682   0.12769   1.000
    O1422   O    0.94100   0.63318   0.12231   1.000
    O1423   O    0.93228   0.62500   0.12500   1.000
    N1424   N    0.31008   0.12500   0.62500   1.000
    O1425   O    0.30352   0.12231   0.63318   1.000
    O1426   O    0.30900   0.12769   0.61683   1.000
    O1427   O    0.31772   0.12500   0.62500   1.000
    N1428   N    0.12500   0.93992   0.62500   1.000
    O1429   O    0.12769   0.94648   0.61683   1.000
    O1430   O    0.12500   0.93228   0.62500   1.000
    O1431   O    0.12231   0.94100   0.63318   1.000
    N1432   N    0.33063   0.51787   0.82086   1.000
    O1433   O    0.32941   0.51162   0.82956   1.000
    O1434   O    0.33788   0.52099   0.81652   1.000
    O1435   O    0.32461   0.52099   0.81652   1.000
    N1436   N    0.50157   0.99843   0.50157   1.000
    O1437   O    0.49613   0.00387   0.49614   1.000
    O1438   O    0.50429   0.98908   0.50429   1.000
    O1439   O    0.50429   0.00234   0.50429   1.000
    N1440   N    0.50157   0.50157   0.99843   1.000
    O1441   O    0.49613   0.49613   0.00387   1.000
    O1442   O    0.50429   0.50429   0.00234   1.000
    O1443   O    0.50429   0.50429   0.98908   1.000
    N1444   N    0.91937   0.42914   0.73213   1.000
    O1445   O    0.92059   0.42044   0.73839   1.000
    O1446   O    0.91212   0.43348   0.72901   1.000
    O1447   O    0.92539   0.43348   0.72901   1.000
    N1448   N    0.31008   0.62500   0.93992   1.000
    O1449   O    0.30352   0.63318   0.94100   1.000
    O1450   O    0.30900   0.61683   0.94648   1.000
    O1451   O    0.31772   0.62500   0.93228   1.000
    N1452   N    0.33063   0.33063   0.82086   1.000
    O1453   O    0.32941   0.32941   0.82956   1.000
    O1454   O    0.32461   0.33788   0.81652   1.000
    O1455   O    0.33788   0.32461   0.81652   1.000
    N1456   N    0.73213   0.91937   0.91937   1.000
    O1457   O    0.73838   0.92059   0.92059   1.000
    O1458   O    0.72901   0.92539   0.91212   1.000
    O1459   O    0.72901   0.91212   0.92539   1.000
    N1460   N    0.91937   0.91937   0.73213   1.000
    O1461   O    0.92059   0.92059   0.73839   1.000
    O1462   O    0.92539   0.91212   0.72901   1.000
    O1463   O    0.91212   0.92539   0.72901   1.000
    N1464   N    0.12500   0.62500   0.93992   1.000
    O1465   O    0.12231   0.63318   0.94100   1.000
    O1466   O    0.12769   0.61683   0.94648   1.000
    O1467   O    0.12500   0.62500   0.93228   1.000
    N1468   N    0.79586   0.79586   0.79586   1.000
    O1469   O    0.80469   0.79143   0.79143   1.000
    O1470   O    0.79143   0.80470   0.79143   1.000
    O1471   O    0.79143   0.79143   0.80470   1.000
    N1472   N    0.45414   0.63759   0.45414   1.000
    O1473   O    0.44531   0.63757   0.45857   1.000
    O1474   O    0.45857   0.63757   0.44531   1.000
    O1475   O    0.45857   0.63757   0.45857   1.000
    N1476   N    0.25157   0.74843   0.74843   1.000
    O1477   O    0.24613   0.75387   0.75387   1.000
    O1478   O    0.24766   0.74571   0.74571   1.000
    O1479   O    0.26092   0.74571   0.74571   1.000
    N1480   N    0.93992   0.12500   0.62500   1.000
    O1481   O    0.94648   0.12769   0.61683   1.000
    O1482   O    0.93228   0.12500   0.62500   1.000
    O1483   O    0.94100   0.12231   0.63318   1.000
    N1484   N    0.91937   0.73213   0.91937   1.000
    O1485   O    0.92059   0.73838   0.92059   1.000
    O1486   O    0.92539   0.72901   0.91212   1.000
    O1487   O    0.91212   0.72901   0.92539   1.000
    N1488   N    0.61241   0.79586   0.79586   1.000
    O1489   O    0.61243   0.80470   0.79143   1.000
    O1490   O    0.61243   0.79143   0.79143   1.000
    O1491   O    0.61243   0.79143   0.80470   1.000
    N1492   N    0.93992   0.31008   0.12500   1.000
    O1493   O    0.94648   0.30900   0.12769   1.000
    O1494   O    0.94100   0.30352   0.12231   1.000
    O1495   O    0.93228   0.31772   0.12500   1.000
loop_
    _geom_bond_atom_site_label_1
    _geom_bond_atom_site_label_2
    _geom_bond_distance
    _geom_bond_site_symmetry_2
    _ccdc_geom_bond_type
    N204   O205      2.30416      .   S
    Zr162  O205      3.24798      .   S
    N204   O206      2.30416      .   S
    Zr163  O206      3.24798      .   S
    N204   O207      2.32511      .   S
    Zr91   O207      3.27005      .   S
    N204   O208      2.32521      .   S
    Zr15   O208      3.27014      .   S
    N209   O210      2.30731      .   S
    Zr191  O210      3.23937      .   S
    N209   O211      2.25950      .   S
    Zr136  O211      3.18208      .   S
    N209   O212      2.28599      .   S
    Zr81   O212      3.22032      .   S
    N209   O213      2.33682      .   S
    Zr56   O213      3.28120      .   S
    N214   O215      2.30193      .   S
    Zr193  O215      3.23739      .   S
    N214   O216      2.32786      .   S
    Zr27   O216      3.27016      .   S
    N214   O217      2.32786      .   S
    Zr57   O217      3.27016      .   S
    N214   O218      2.30193      .   S
    Zr203  O218      3.23739      .   S
    N219   O220      2.28599      .   S
    Zr9    O220      3.22071      .   S
    N219   O221      2.33682      .   S
    Zr32   O221      3.28120      .   S
    N219   O222      2.30731      .   S
    Zr184  O222      3.23930      .   S
    N219   O223      2.25949      .   S
    Zr124  O223      3.18210      .   S
    N224   O225      2.33682      .   S
    Zr12   O225      3.28120      .   S
    N224   O226      2.30731  1_455   S
    Zr198  O226      3.23930      .   S
    N224   O227      2.28599  1_455   S
    Zr37   O227      3.22071      .   S
    N224   O228      2.25949      .   S
    Zr126  O228      3.18210      .   S
    N229   O230      2.32650      .   S
    Zr130  O230      3.27039      .   S
    N229   O231      2.32476      .   S
    Zr166  O231      3.26562      .   S
    N229   O232      2.34259      .   S
    Zr149  O232      3.28775      .   S
    N229   O233      2.34965      .   S
    Zr20   O233      3.30030      .   S
    N234   O235      2.34963      .   S
    Zr18   O235      3.30028      .   S
    N234   O236      2.34265      .   S
    Zr148  O236      3.28780      .   S
    N234   O237      2.32655      .   S
    Zr129  O237      3.27022      .   S
    N234   O238      2.32481      .   S
    Zr165  O238      3.26560      .   S
    N239   O240      2.34965      .   S
    Zr30   O240      3.30030      .   S
    N239   O241      2.32476      .   S
    Zr171  O241      3.26562      .   S
    N239   O242      2.32650      .   S
    Zr128  O242      3.27039      .   S
    N239   O243      2.34259      .   S
    Zr151  O243      3.28775      .   S
    N244   O245      2.28599      .   S
    Zr55   O245      3.22010      .   S
    N244   O246      2.30731      .   S
    Zr195  O246      3.23978      .   S
    N244   O247      2.25960      .   S
    Zr135  O247      3.18199      .   S
    N244   O248      2.33682      .   S
    Zr88   O248      3.28120      .   S
    N249   O250      2.33187      .   S
    Zr26   O250      3.27586  1_655   S
    N249   O251      2.33187      .   S
    Zr48   O251      3.27586  1_565   S
    N249   O252      2.33704      .   S
    Zr20   O252      3.28138  1_655   S
    N249   O253      2.33704      .   S
    Zr90   O253      3.28138  1_565   S
    N254   O255      2.26915      .   S
    Zr97   O255      3.20286      .   S
    N254   O256      2.26915      .   S
    Zr106  O256      3.20286      .   S
    N254   O257      2.26917      .   S
    Zr107  O257      3.20289      .   S
    N254   O258      2.26917      .   S
    Zr99   O258      3.20289      .   S
    N259   O260      2.32649      .   S
    Zr140  O260      3.27041      .   S
    N259   O261      2.34259      .   S
    Zr153  O261      3.28774  1_455   S
    N259   O262      2.34970      .   S
    Zr64   O262      3.30035      .   S
    N259   O263      2.32462      .   S
    Zr175  O263      3.26566      .   S
    N264   O265      2.34963      .   S
    Zr40   O265      3.30027      .   S
    N264   O266      2.32654      .   S
    Zr123  O266      3.27026      .   S
    N264   O267      2.34264      .   S
    Zr154  O267      3.28780  1_455   S
    N264   O268      2.32484      .   S
    Zr176  O268      3.26559      .   S
    N269   O270      2.34963      .   S
    Zr34   O270      3.30027      .   S
    N269   O271      2.32654      .   S
    Zr127  O271      3.27026      .   S
    N269   O272      2.32484      .   S
    Zr173  O272      3.26559      .   S
    N269   O273      2.34264      .   S
    Zr152  O273      3.28780  1_545   S
    N274   O275      2.30063      .   S
    Zr96   O275      3.23554      .   S
    N274   O276      2.30063      .   S
    Zr100  O276      3.23554      .   S
    N274   O277      2.29763      .   S
    Zr1    O277      3.23037      .   S
    N274   O278      2.29763      .   S
    Zr75   O278      3.23037      .   S
    N279   O280      2.34963      .   S
    Zr22   O280      3.30027      .   S
    N279   O281      2.32484      .   S
    Zr167  O281      3.26559      .   S
    N279   O282      2.32654      .   S
    Zr131  O282      3.27026      .   S
    N279   O283      2.34264      .   S
    Zr149  O283      3.28780      .   S
    N284   O285      2.29770      .   S
    Zr81   O285      3.23065      .   S
    N284   O286      2.30067      .   S
    Zr97   O286      3.23557      .   S
    N284   O287      2.29774      .   S
    Zr23   O287      3.23078      .   S
    N284   O288      2.30065      .   S
    Zr107  O288      3.23556      .   S
    N289   O290      2.30731      .   S
    Zr183  O290      3.23978      .   S
    N289   O291      2.33682      .   S
    Zr40   O291      3.28120      .   S
    N289   O292      2.28599      .   S
    Zr7    O292      3.22010      .   S
    N289   O293      2.25960      .   S
    Zr123  O293      3.18199      .   S
    N294   O295      2.30731      .   S
    Zr189  O295      3.23920      .   S
    N294   O296      2.25944      .   S
    Zr129  O296      3.18214      .   S
    N294   O297      2.28599      .   S
    Zr19   O297      3.22048      .   S
    N294   O298      2.33682      .   S
    Zr24   O298      3.28120      .   S
    N299   O300      2.28599  1_554   S
    Zr53   O300      3.22032      .   S
    N299   O301      2.25950      .   S
    Zr134  O301      3.18208      .   S
    N299   O302      2.30731  1_554   S
    Zr194  O302      3.23937      .   S
    N299   O303      2.33682      .   S
    Zr94   O303      3.28120      .   S
    N304   O305      2.26920      .   S
    Zr118  O305      3.20292      .   S
    N304   O306      2.26920      .   S
    Zr111  O306      3.20292      .   S
    N304   O307      2.26913      .   S
    Zr119  O307      3.20284      .   S
    N304   O308      2.26913      .   S
    Zr109  O308      3.20284      .   S
    N309   O310      2.30731      .   S
    Zr187  O310      3.23937      .   S
    N309   O311      2.28599      .   S
    Zr91   O311      3.22032      .   S
    N309   O312      2.25950      .   S
    Zr132  O312      3.18208      .   S
    N309   O313      2.33682      .   S
    Zr48   O313      3.28120      .   S
    N314   O315      0.48324      .   S
    Zr18   O315      1.44973      .   S
    N314   O316      0.48025      .   S
    Zr129  O316      1.44076      .   S
    N314   O317      0.48324      .   S
    Zr24   O317      1.44973      .   S
    N318   O319      2.29774      .   S
    Zr77   O319      3.23078      .   S
    N318   O320      2.30065      .   S
    Zr103  O320      3.23556      .   S
    N318   O321      2.30067      .   S
    Zr98   O321      3.23557      .   S
    N318   O322      2.29770      .   S
    Zr5    O322      3.23065      .   S
    N323   O324      2.32516      .   S
    Zr95   O324      3.27009      .   S
    N323   O325      2.32516      .   S
    Zr9    O325      3.27009      .   S
    N323   O326      2.30416      .   S
    Zr161  O326      3.24798      .   S
    N323   O327      2.30416      .   S
    Zr160  O327      3.24798      .   S
    N328   O329      2.32789      .   S
    Zr5    O329      3.27027      .   S
    N328   O330      2.32774      .   S
    Zr87   O330      3.26982      .   S
    N328   O331      2.30181      .   S
    Zr182  O331      3.23705      .   S
    N328   O332      2.30196      .   S
    Zr189  O332      3.23749      .   S
    N333   O334      2.30731  1_545   S
    Zr193  O334      3.23930      .   S
    N333   O335      2.25949      .   S
    Zr130  O335      3.18210      .   S
    N333   O336      2.28599  1_545   S
    Zr27   O336      3.22071      .   S
    N333   O337      2.33682      .   S
    Zr20   O337      3.28120      .   S
    N338   O339      2.33682      .   S
    Zr72   O339      3.28120      .   S
    N338   O340      2.30731  1_455   S
    Zr199  O340      3.23920      .   S
    N338   O341      2.28599  1_455   S
    Zr67   O341      3.22048      .   S
    N338   O342      2.25944      .   S
    Zr141  O342      3.18214      .   S
    N343   O344      2.33188      .   S
    Zr38   O344      3.27587  1_655   S
    N343   O345      2.33706      .   S
    Zr72   O345      3.28134  1_556   S
    N343   O346      2.33188      .   S
    Zr66   O346      3.27587  1_556   S
    N343   O347      2.33706      .   S
    Zr10   O347      3.28134  1_655   S
    N348   O349      2.30731  1_554   S
    Zr195  O349      3.23937      .   S
    N348   O350      2.28599  1_554   S
    Zr31   O350      3.22032      .   S
    N348   O351      2.33682      .   S
    Zr16   O351      3.28120      .   S
    N348   O352      2.25950      .   S
    Zr128  O352      3.18208      .   S
    N353   O354      2.32462      .   S
    Zr164  O354      3.26566      .   S
    N353   O355      2.34970      .   S
    Zr16   O355      3.30035      .   S
    N353   O356      2.32649      .   S
    Zr128  O356      3.27041      .   S
    N353   O357      2.34259      .   S
    Zr148  O357      3.28774      .   S
    N358   O359      2.26917      .   S
    Zr110  O359      3.20289      .   S
    N358   O360      2.26917      .   S
    Zr113  O360      3.20289      .   S
    N358   O361      2.26915      .   S
    Zr115  O361      3.20286      .   S
    N358   O362      2.26915      .   S
    Zr111  O362      3.20286      .   S
    N363   O364      2.30731      .   S
    Zr182  O364      3.23978      .   S
    N363   O365      2.28599      .   S
    Zr77   O365      3.22010      .   S
    N363   O366      2.25960      .   S
    Zr143  O366      3.18199      .   S
    N363   O367      2.33682      .   S
    Zr70   O367      3.28120      .   S
    N368   O369      2.33188      .   S
    Zr86   O369      3.27587      .   S
    N368   O370      2.33706      .   S
    Zr58   O370      3.28134      .   S
    N368   O371      2.33706      .   S
    Zr24   O371      3.28134      .   S
    N368   O372      2.33188      .   S
    Zr18   O372      3.27587      .   S
    N373   O374      2.30416      .   S
    Zr157  O374      3.24798      .   S
    N373   O375      2.32516      .   S
    Zr75   O375      3.27009      .   S
    N373   O376      2.30416      .   S
    Zr156  O376      3.24798      .   S
    N373   O377      2.32516      .   S
    Zr1    O377      3.27009      .   S
    N378   O379      2.29770      .   S
    Zr79   O379      3.23065      .   S
    N378   O380      2.30067      .   S
    Zr101  O380      3.23557      .   S
    N378   O381      2.30065      .   S
    Zr99   O381      3.23556      .   S
    N378   O382      2.29774      .   S
    Zr7    O382      3.23078      .   S
    N383   O384      2.30416      .   S
    Zr176  O384      3.24798      .   S
    N383   O385      2.32511      .   S
    Zr61   O385      3.27005      .   S
    N383   O386      2.30416      .   S
    Zr177  O386      3.24798  1_455   S
    N383   O387      2.32521      .   S
    Zr41   O387      3.27014      .   S
    N388   O389      2.26913      .   S
    Zr100  O389      3.20284      .   S
    N388   O390      2.26920      .   S
    Zr97   O390      3.20292      .   S
    N388   O391      2.26920      .   S
    Zr102  O391      3.20292      .   S
    N388   O392      2.26913      .   S
    Zr96   O392      3.20284      .   S
    N393   O394      2.30192      .   S
    Zr196  O394      3.23736      .   S
    N393   O395      2.32784      .   S
    Zr71   O395      3.27010      .   S
    N393   O396      2.30192      .   S
    Zr200  O396      3.23736      .   S
    N393   O397      2.32784      .   S
    Zr41   O397      3.27010      .   S
    N398   O399      2.30731      .   S
    Zr194  O399      3.23978      .   S
    N398   O400      2.28599      .   S
    Zr29   O400      3.22010      .   S
    N398   O401      2.33682      .   S
    Zr22   O401      3.28120      .   S
    N398   O402      2.25960      .   S
    Zr131  O402      3.18199      .   S
    N403   O404      2.33709      .   S
    Zr88   O404      3.28130  1_556   S
    N403   O405      2.33186      .   S
    Zr54   O405      3.27584  1_556   S
    N403   O406      2.33189      .   S
    Zr30   O406      3.27588      .   S
    N403   O407      2.33698      .   S
    Zr16   O407      3.28149      .   S
    N408   O409      2.25950      .   S
    Zr122  O409      3.18208      .   S
    N408   O410      2.30731      .   S
    Zr182  O410      3.23937      .   S
    N408   O411      2.33682      .   S
    Zr46   O411      3.28120      .   S
    N408   O412      2.28599      .   S
    Zr5    O412      3.22032      .   S
    N413   O414      2.33682      .   S
    Zr2    O414      3.28120      .   S
    N413   O415      2.28599  1_545   S
    Zr45   O415      3.22048      .   S
    N413   O416      2.25944      .   S
    Zr121  O416      3.18214      .   S
    N413   O417      2.30731  1_545   S
    Zr202  O417      3.23920      .   S
    N418   O419      2.33704      .   S
    Zr32   O419      3.28138      .   S
    N418   O420      2.33187      .   S
    Zr94   O420      3.27586      .   S
    N418   O421      2.33187      .   S
    Zr8    O421      3.27586      .   S
    N418   O422      2.33704      .   S
    Zr52   O422      3.28138      .   S
    N423   O424      2.34965      .   S
    Zr4    O424      3.30030      .   S
    N423   O425      2.32476      .   S
    Zr158  O425      3.26562      .   S
    N423   O426      2.34259      .   S
    Zr145  O426      3.28775      .   S
    N423   O427      2.32650      .   S
    Zr122  O427      3.27039      .   S
    N428   O429      2.34963      .   S
    Zr2    O429      3.30028      .   S
    N428   O430      2.34265      .   S
    Zr144  O430      3.28780      .   S
    N428   O431      2.32655      .   S
    Zr121  O431      3.27022      .   S
    N428   O432      2.32481      .   S
    Zr157  O432      3.26560      .   S
    N433   O434      2.33682      .   S
    Zr78   O434      3.28120      .   S
    N433   O435      2.28599  1_554   S
    Zr65   O435      3.22071      .   S
    N433   O436      2.30731  1_554   S
    Zr198  O436      3.23930      .   S
    N433   O437      2.25949      .   S
    Zr140  O437      3.18210      .   S
    N438   O439      2.26913      .   S
    Zr104  O439      3.20284      .   S
    N438   O440      2.26920      .   S
    Zr106  O440      3.20292      .   S
    N438   O441      2.26920      .   S
    Zr101  O441      3.20292      .   S
    N438   O442      2.26913      .   S
    Zr100  O442      3.20284      .   S
    N443   O444      2.32784      .   S
    Zr7    O444      3.27010      .   S
    N443   O445      2.30192      .   S
    Zr183  O445      3.23736      .   S
    N443   O446      2.32784      .   S
    Zr83   O446      3.27010      .   S
    N443   O447      2.30192      .   S
    Zr190  O447      3.23736      .   S
    N448   O449      2.33682      .   S
    Zr84   O449      3.28120      .   S
    N448   O450      2.30731  1_455   S
    Zr200  O450      3.23937      .   S
    N448   O451      2.25950      .   S
    Zr138  O451      3.18208      .   S
    N448   O452      2.28599  1_455   S
    Zr61   O452      3.22032      .   S
    N453   O454      2.29770      .   S
    Zr21   O454      3.23065      .   S
    N453   O455      2.30065      .   S
    Zr99   O455      3.23556      .   S
    N453   O456      2.29774      .   S
    Zr83   O456      3.23078      .   S
    N453   O457      2.30067      .   S
    Zr106  O457      3.23557      .   S
    N458   O459      2.33682      .   S
    Zr52   O459      3.28120      .   S
    N458   O460      2.28599      .   S
    Zr95   O460      3.22071      .   S
    N458   O461      2.25949      .   S
    Zr134  O461      3.18210      .   S
    N458   O462      2.30731      .   S
    Zr184  O462      3.23930      .   S
    N463   O464      2.32654      .   S
    Zr143  O464      3.27026      .   S
    N463   O465      2.32484      .   S
    Zr173  O465      3.26559      .   S
    N463   O466      2.34264      .   S
    Zr152  O466      3.28780  1_545   S
    N463   O467      2.34963      .   S
    Zr70   O467      3.30027      .   S
    N468   O469      2.33186      .   S
    Zr76   O469      3.27584      .   S
    N468   O470      2.33709      .   S
    Zr70   O470      3.28130      .   S
    N468   O471      2.33698      .   S
    Zr46   O471      3.28149      .   S
    N468   O472      2.33189      .   S
    Zr4    O472      3.27588      .   S
    N473   O474      2.33682      .   S
    Zr38   O474      3.28120      .   S
    N473   O475      2.30731      .   S
    Zr185  O475      3.23920      .   S
    N473   O476      2.25944      .   S
    Zr125  O476      3.18214      .   S
    N473   O477      2.28599      .   S
    Zr11   O477      3.22048      .   S
    N478   O479      2.33186      .   S
    Zr28   O479      3.27584  1_556   S
    N478   O480      2.33189      .   S
    Zr52   O480      3.27588      .   S
    N478   O481      2.33709      .   S
    Zr22   O481      3.28130  1_556   S
    N478   O482      2.33698      .   S
    Zr94   O482      3.28149      .   S
    N483   O484      2.32655      .   S
    Zr125  O484      3.27022      .   S
    N483   O485      2.34963      .   S
    Zr10   O485      3.30028      .   S
    N483   O486      2.32481      .   S
    Zr161  O486      3.26560      .   S
    N483   O487      2.34265      .   S
    Zr146  O487      3.28780      .   S
    N488   O489      2.30192      .   S
    Zr195  O489      3.23736      .   S
    N488   O490      2.32784      .   S
    Zr55   O490      3.27010      .   S
    N488   O491      2.30192      .   S
    Zr197  O491      3.23736      .   S
    N488   O492      2.32784      .   S
    Zr35   O492      3.27010      .   S
    N493   O494      2.30731      .   S
    Zr188  O494      3.23930      .   S
    N493   O495      2.33682      .   S
    Zr30   O495      3.28120      .   S
    N493   O496      2.25949      .   S
    Zr128  O496      3.18210      .   S
    N493   O497      2.28599      .   S
    Zr17   O497      3.22071      .   S
    N498   O499      2.34259      .   S
    Zr144  O499      3.28774      .   S
    N498   O500      2.34970      .   S
    Zr0    O500      3.30035      .   S
    N498   O501      2.32462      .   S
    Zr156  O501      3.26566      .   S
    N498   O502      2.32649      .   S
    Zr120  O502      3.27041      .   S
    N503   O504      2.30731      .   S
    Zr183  O504      3.23937      .   S
    N503   O505      2.28599      .   S
    Zr79   O505      3.22032      .   S
    N503   O506      2.25950      .   S
    Zr140  O506      3.18208      .   S
    N503   O507      2.33682      .   S
    Zr64   O507      3.28120      .   S
    N508   O509      2.30192      .   S
    Zr191  O509      3.23736      .   S
    N508   O510      2.32784      .   S
    Zr23   O510      3.27010      .   S
    N508   O511      2.32784      .   S
    Zr89   O511      3.27010      .   S
    N508   O512      2.30192      .   S
    Zr186  O512      3.23736      .   S
    N513   O514      2.32540      .   S
    Zr73   O514      3.27034      .   S
    N513   O515      2.30416      .   S
    Zr156  O515      3.24798      .   S
    N513   O516      2.32540      .   S
    Zr3    O516      3.27034      .   S
    N513   O517      2.30416      .   S
    Zr157  O517      3.24798      .   S
    N518   O519      2.32650      .   S
    Zr136  O519      3.27039      .   S
    N518   O520      2.34965      .   S
    Zr80   O520      3.30030      .   S
    N518   O521      2.34259      .   S
    Zr149  O521      3.28775      .   S
    N518   O522      2.32476      .   S
    Zr166  O522      3.26562      .   S
    N523   O524      2.29770      .   S
    Zr13   O524      3.23065      .   S
    N523   O525      2.30065      .   S
    Zr107  O525      3.23556      .   S
    N523   O526      2.30067      .   S
    Zr102  O526      3.23557      .   S
    N523   O527      2.29774      .   S
    Zr89   O527      3.23078      .   S
    N528   O529      2.26915      .   S
    Zr105  O529      3.20286      .   S
    N528   O530      2.26915      .   S
    Zr102  O530      3.20286      .   S
    N528   O531      2.26917      .   S
    Zr107  O531      3.20289      .   S
    N528   O532      2.26917      .   S
    Zr103  O532      3.20289      .   S
    N533   O534      2.32516      .   S
    Zr37   O534      3.27009      .   S
    N533   O535      2.30416      .   S
    Zr174  O535      3.24798  1_455   S
    N533   O536      2.32516      .   S
    Zr65   O536      3.27009      .   S
    N533   O537      2.30416      .   S
    Zr175  O537      3.24798  1_554   S
    N538   O539      2.32786      .   S
    Zr49   O539      3.27016      .   S
    N538   O540      2.30193      .   S
    Zr198  O540      3.23739      .   S
    N538   O541      2.30193      .   S
    Zr193  O541      3.23739      .   S
    N538   O542      2.32786      .   S
    Zr37   O542      3.27016      .   S
    N543   O544      2.33682      .   S
    Zr50   O544      3.28120      .   S
    N543   O545      2.25944      .   S
    Zr133  O545      3.18214      .   S
    N543   O546      2.28599      .   S
    Zr93   O546      3.22048      .   S
    N543   O547      2.30731      .   S
    Zr185  O547      3.23920      .   S
    N548   O549      2.34259      .   S
    Zr152  O549      3.28775      .   S
    N548   O550      2.32650      .   S
    Zr124  O550      3.27039      .   S
    N548   O551      2.32476      .   S
    Zr172  O551      3.26562      .   S
    N548   O552      2.34965      .   S
    Zr32   O552      3.30030      .   S
    N553   O554      2.25944      .   S
    Zr121  O554      3.18214      .   S
    N553   O555      2.33682      .   S
    Zr44   O555      3.28120      .   S
    N553   O556      2.28599      .   S
    Zr3    O556      3.22048      .   S
    N553   O557      2.30731      .   S
    Zr181  O557      3.23920      .   S
    N558   O559      2.33188      .   S
    Zr2    O559      3.27587      .   S
    N558   O560      2.33706      .   S
    Zr44   O560      3.28134      .   S
    N558   O561      2.33706      .   S
    Zr66   O561      3.28134      .   S
    N558   O562      2.33188      .   S
    Zr72   O562      3.27587      .   S
    N563   O564      2.25949      .   S
    Zr136  O564      3.18210      .   S
    N563   O565      2.28599  1_545   S
    Zr57   O565      3.22071      .   S
    N563   O566      2.30731  1_545   S
    Zr203  O566      3.23930      .   S
    N563   O567      2.33682      .   S
    Zr80   O567      3.28120      .   S
    N568   O569      2.30416      .   S
    Zr159  O569      3.24798      .   S
    N568   O570      2.32521      .   S
    Zr7    O570      3.27014      .   S
    N568   O571      2.32511      .   S
    Zr79   O571      3.27005      .   S
    N568   O572      2.30416      .   S
    Zr158  O572      3.24798      .   S
    N573   O574      2.30731  1_554   S
    Zr203  O574      3.23930      .   S
    N573   O575      2.33682      .   S
    Zr4    O575      3.28120      .   S
    N573   O576      2.28599  1_554   S
    Zr47   O576      3.22071      .   S
    N573   O577      2.25949      .   S
    Zr122  O577      3.18210      .   S
    N578   O579      2.30181      .   S
    Zr194  O579      3.23705      .   S
    N578   O580      2.32774      .   S
    Zr39   O580      3.26982      .   S
    N578   O581      2.30196      .   S
    Zr199  O581      3.23749      .   S
    N578   O582      2.32789      .   S
    Zr53   O582      3.27027      .   S
    N583   O584      2.33704      .   S
    Zr42   O584      3.28138      .   S
    N583   O585      2.33187      .   S
    Zr74   O585      3.27586      .   S
    N583   O586      2.33704      .   S
    Zr68   O586      3.28138      .   S
    N583   O587      2.33187      .   S
    Zr0    O587      3.27586      .   S
    N588   O589      2.32649      .   S
    Zr122  O589      3.27041      .   S
    N588   O590      2.32462      .   S
    Zr179  O590      3.26566      .   S
    N588   O591      2.34259      .   S
    Zr155  O591      3.28774  1_545   S
    N588   O592      2.34970      .   S
    Zr46   O592      3.30035      .   S
    N593   O594      2.32789      .   S
    Zr61   O594      3.27027      .   S
    N593   O595      2.30196      .   S
    Zr192  O595      3.23749      .   S
    N593   O596      2.32774      .   S
    Zr25   O596      3.26982      .   S
    N593   O597      2.30181      .   S
    Zr200  O597      3.23705      .   S
    N598   O599      2.33189      .   S
    Zr20   O599      3.27588      .   S
    N598   O600      2.33709      .   S
    Zr62   O600      3.28130      .   S
    N598   O601      2.33186      .   S
    Zr82   O601      3.27584      .   S
    N598   O602      2.33698      .   S
    Zr26   O602      3.28149      .   S
    N603   O604      2.30416      .   S
    Zr173  O604      3.24798      .   S
    N603   O605      2.30416      .   S
    Zr172  O605      3.24798  1_545   S
    N603   O606      2.32521      .   S
    Zr71   O606      3.27014      .   S
    N603   O607      2.32511      .   S
    Zr33   O607      3.27005      .   S
    N608   O609      2.25960      .   S
    Zr123  O609      3.18199      .   S
    N608   O610      2.30731      .   S
    Zr200  O610      3.23978      .   S
    N608   O611      2.33682      .   S
    Zr6    O611      3.28120      .   S
    N608   O612      2.28599      .   S
    Zr41   O612      3.22010      .   S
    N613   O614      2.29763      .   S
    Zr37   O614      3.23037      .   S
    N613   O615      2.30063      .   S
    Zr114  O615      3.23554      .   S
    N613   O616      2.30063      .   S
    Zr119  O616      3.23554      .   S
    N613   O617      2.29763      .   S
    Zr65   O617      3.23037      .   S
    N618   O619      2.30193      .   S
    Zr188  O619      3.23739      .   S
    N618   O620      2.30193      .   S
    Zr184  O620      3.23739      .   S
    N618   O621      2.32786      .   S
    Zr17   O621      3.27016      .   S
    N618   O622      2.32786      .   S
    Zr95   O622      3.27016      .   S
    N623   O624      2.34259      .   S
    Zr154  O624      3.28775      .   S
    N623   O625      2.32476      .   S
    Zr177  O625      3.26562      .   S
    N623   O626      2.34965      .   S
    Zr60   O626      3.30030      .   S
    N623   O627      2.32650      .   S
    Zr138  O627      3.27039      .   S
    N628   O629      2.32521      .   S
    Zr29   O629      3.27014      .   S
    N628   O630      2.30416      .   S
    Zr171  O630      3.24798  1_554   S
    N628   O631      2.32511      .   S
    Zr53   O631      3.27005      .   S
    N628   O632      2.30416      .   S
    Zr170  O632      3.24798      .   S
    N633   O634      2.25949      .   S
    Zr132  O634      3.18210      .   S
    N633   O635      2.33682      .   S
    Zr90   O635      3.28120      .   S
    N633   O636      2.28599  1_455   S
    Zr49   O636      3.22071      .   S
    N633   O637      2.30731  1_455   S
    Zr193  O637      3.23930      .   S
    N638   O639      2.30731      .   S
    Zr191  O639      3.23978      .   S
    N638   O640      2.33682      .   S
    Zr28   O640      3.28120      .   S
    N638   O641      2.28599      .   S
    Zr23   O641      3.22010      .   S
    N638   O642      2.25960      .   S
    Zr131  O642      3.18199      .   S
    N643   O644      2.34259      .   S
    Zr150  O644      3.28774  1_455   S
    N643   O645      2.32462      .   S
    Zr169  O645      3.26566      .   S
    N643   O646      2.34970      .   S
    Zr26   O646      3.30035      .   S
    N643   O647      2.32649      .   S
    Zr130  O647      3.27041      .   S
    N648   O649      2.32789      .   S
    Zr79   O649      3.27027      .   S
    N648   O650      2.30196      .   S
    Zr185  O650      3.23749      .   S
    N648   O651      2.30181      .   S
    Zr183  O651      3.23705      .   S
    N648   O652      2.32774      .   S
    Zr11   O652      3.26982      .   S
    N653   O654      2.32789      .   S
    Zr31   O654      3.27027      .   S
    N653   O655      2.30196      .   S
    Zr202  O655      3.23749      .   S
    N653   O656      2.30181      .   S
    Zr195  O656      3.23705      .   S
    N653   O657      2.32774      .   S
    Zr59   O657      3.26982      .   S
    N658   O659      2.30067      .   S
    Zr117  O659      3.23557      .   S
    N658   O660      2.29770      .   S
    Zr43   O660      3.23065      .   S
    N658   O661      2.29774      .   S
    Zr63   O661      3.23078      .   S
    N658   O662      2.30065      .   S
    Zr110  O662      3.23556      .   S
    N663   O664      2.32789      .   S
    Zr43   O664      3.27027      .   S
    N663   O665      2.32774      .   S
    Zr67   O665      3.26982      .   S
    N663   O666      2.30181      .   S
    Zr201  O666      3.23705      .   S
    N663   O667      2.30196      .   S
    Zr199  O667      3.23749      .   S
    N668   O669      2.33188      .   S
    Zr58   O669      3.27587  1_565   S
    N668   O670      2.33706      .   S
    Zr86   O670      3.28134  1_565   S
    N668   O671      2.33188      .   S
    Zr44   O671      3.27587  1_556   S
    N668   O672      2.33706      .   S
    Zr2    O672      3.28134  1_556   S
    N673   O674      2.25960      .   S
    Zr143  O674      3.18199      .   S
    N673   O675      2.33682      .   S
    Zr76   O675      3.28120      .   S
    N673   O676      2.28599      .   S
    Zr71   O676      3.22010      .   S
    N673   O677      2.30731      .   S
    Zr196  O677      3.23978      .   S
    N678   O679      2.32481      .   S
    Zr156  O679      3.26560      .   S
    N678   O680      2.34963      .   S
    Zr72   O680      3.30028      .   S
    N678   O681      2.34265      .   S
    Zr144  O681      3.28780      .   S
    N678   O682      2.32655      .   S
    Zr141  O682      3.27022      .   S
    N683   O684      2.32484      .   S
    Zr170  O684      3.26559      .   S
    N683   O685      2.32654      .   S
    Zr131  O685      3.27026      .   S
    N683   O686      2.34963      .   S
    Zr28   O686      3.30027      .   S
    N683   O687      2.34264      .   S
    Zr151  O687      3.28780  1_554   S
    N688   O689      2.34265      .   S
    Zr150  O689      3.28780  1_545   S
    N688   O690      2.32655      .   S
    Zr129  O690      3.27022      .   S
    N688   O691      2.32481      .   S
    Zr168  O691      3.26560      .   S
    N688   O692      2.34963      .   S
    Zr24   O692      3.30028      .   S
    N693   O694      2.30416      .   S
    Zr169  O694      3.24798  1_545   S
    N693   O695      2.32516      .   S
    Zr27   O695      3.27009      .   S
    N693   O696      2.30416      .   S
    Zr168  O696      3.24798  1_455   S
    N693   O697      2.32516      .   S
    Zr49   O697      3.27009      .   S
    N698   O699      2.26915      .   S
    Zr101  O699      3.20286      .   S
    N698   O700      2.26917      .   S
    Zr103  O700      3.20289      .   S
    N698   O701      2.26915      .   S
    Zr98   O701      3.20286      .   S
    N698   O702      2.26917      .   S
    Zr99   O702      3.20289      .   S
    N703   O704      2.32511      .   S
    Zr43   O704      3.27005      .   S
    N703   O705      2.30416      .   S
    Zr177  O705      3.24798  1_455   S
    N703   O706      2.30416      .   S
    Zr176  O706      3.24798      .   S
    N703   O707      2.32521      .   S
    Zr63   O707      3.27014      .   S
    N708   O709      2.28599  1_545   S
    Zr33   O709      3.22032      .   S
    N708   O710      2.33682      .   S
    Zr8    O710      3.28120      .   S
    N708   O711      2.30731  1_545   S
    Zr196  O711      3.23937      .   S
    N708   O712      2.25950      .   S
    Zr124  O712      3.18208      .   S
    N713   O714      2.30731  1_545   S
    Zr197  O714      3.23937      .   S
    N713   O715      2.28599  1_545   S
    Zr69   O715      3.22032      .   S
    N713   O716      2.25950      .   S
    Zr142  O716      3.18208      .   S
    N713   O717      2.33682      .   S
    Zr74   O717      3.28120      .   S
    N718   O719      2.33704      .   S
    Zr78   O719      3.28138  1_655   S
    N718   O720      2.33704      .   S
    Zr12   O720      3.28138  1_556   S
    N718   O721      2.33187      .   S
    Zr36   O721      3.27586  1_556   S
    N718   O722      2.33187      .   S
    Zr64   O722      3.27586  1_655   S
    N723   O724      2.28599      .   S
    Zr75   O724      3.22071      .   S
    N723   O725      2.25949      .   S
    Zr142  O725      3.18210      .   S
    N723   O726      2.30731      .   S
    Zr180  O726      3.23930      .   S
    N723   O727      2.33682      .   S
    Zr68   O727      3.28120      .   S
    N728   O729      2.33709      .   S
    Zr28   O729      3.28130      .   S
    N728   O730      2.33698      .   S
    Zr56   O730      3.28149      .   S
    N728   O731      2.33189      .   S
    Zr80   O731      3.27588      .   S
    N728   O732      2.33186      .   S
    Zr22   O732      3.27584      .   S
    N733   O734      2.30064      .   S
    Zr112  O734      3.23555      .   S
    N733   O735      2.30064      .   S
    Zr108  O735      3.23555      .   S
    N733   O736      2.29767      .   S
    Zr51   O736      3.23053      .   S
    N733   O737      2.29767      .   S
    Zr25   O737      3.23053      .   S
    N738   O739      2.30731      .   S
    Zr187  O739      3.23978      .   S
    N738   O740      2.25960      .   S
    Zr127  O740      3.18199      .   S
    N738   O741      2.33682      .   S
    Zr34   O741      3.28120      .   S
    N738   O742      2.28599      .   S
    Zr15   O742      3.22010      .   S
    N743   O744      2.33186      .   S
    Zr6    O744      3.27584      .   S
    N743   O745      2.33189      .   S
    Zr78   O745      3.27588      .   S
    N743   O746      2.33709      .   S
    Zr40   O746      3.28130      .   S
    N743   O747      2.33698      .   S
    Zr64   O747      3.28149      .   S
    N748   O749      2.33682      .   S
    Zr18   O749      3.28120      .   S
    N748   O750      2.28599  1_455   S
    Zr25   O750      3.22048      .   S
    N748   O751      2.30731  1_455   S
    Zr192  O751      3.23920      .   S
    N748   O752      2.25944      .   S
    Zr129  O752      3.18214      .   S
    N753   O754      2.30196      .   S
    Zr189  O754      3.23749      .   S
    N753   O755      2.32789      .   S
    Zr91   O755      3.27027      .   S
    N753   O756      2.32774      .   S
    Zr19   O756      3.26982      .   S
    N753   O757      2.30181      .   S
    Zr187  O757      3.23705      .   S
    N758   O759      2.34259      .   S
    Zr144  O759      3.28774      .   S
    N758   O760      2.32649      .   S
    Zr142  O760      3.27041      .   S
    N758   O761      2.34970      .   S
    Zr74   O761      3.30035      .   S
    N758   O762      2.32462      .   S
    Zr157  O762      3.26566      .   S
    N763   O764      2.30063      .   S
    Zr96   O764      3.23554      .   S
    N763   O765      2.29763      .   S
    Zr85   O765      3.23037      .   S
    N763   O766      2.30063      .   S
    Zr104  O766      3.23554      .   S
    N763   O767      2.29763      .   S
    Zr17   O767      3.23037      .   S
    N768   O769      2.32655      .   S
    Zr125  O769      3.27022      .   S
    N768   O770      2.34265      .   S
    Zr153  O770      3.28780  1_455   S
    N768   O771      2.34963      .   S
    Zr38   O771      3.30028      .   S
    N768   O772      2.32481      .   S
    Zr175  O772      3.26560      .   S
    N773   O774      2.34963      .   S
    Zr44   O774      3.30028      .   S
    N773   O775      2.32481      .   S
    Zr178  O775      3.26560      .   S
    N773   O776      2.34265      .   S
    Zr155  O776      3.28780  1_554   S
    N773   O777      2.32655      .   S
    Zr121  O777      3.27022      .   S
    N778   O779      2.33682      .   S
    Zr0    O779      3.28120      .   S
    N778   O780      2.25950      .   S
    Zr120  O780      3.18208      .   S
    N778   O781      2.28599  1_455   S
    Zr43   O781      3.22032      .   S
    N778   O782      2.30731  1_455   S
    Zr201  O782      3.23937      .   S
    N783   O784      2.32789      .   S
    Zr81   O784      3.27027      .   S
    N783   O785      2.32774      .   S
    Zr3    O785      3.26982      .   S
    N783   O786      2.30196      .   S
    Zr181  O786      3.23749      .   S
    N783   O787      2.30181      .   S
    Zr191  O787      3.23705      .   S
    N788   O789      0.48324      .   S
    Zr50   O789      1.44973      .   S
    N788   O790      0.48324      .   S
    Zr92   O790      1.44973      .   S
    N788   O791      0.48025      .   S
    Zr133  O791      1.44076      .   S
    N792   O793      2.32654      .   S
    Zr139  O793      3.27026      .   S
    N792   O794      2.34264      .   S
    Zr149  O794      3.28780      .   S
    N792   O795      2.32484      .   S
    Zr167  O795      3.26559      .   S
    N792   O796      2.34963      .   S
    Zr82   O796      3.30027      .   S
    N797   O798      2.30065      .   S
    Zr116  O798      3.23556      .   S
    N797   O799      2.29774      .   S
    Zr41   O799      3.23078      .   S
    N797   O800      2.29770      .   S
    Zr61   O800      3.23065      .   S
    N797   O801      2.30067      .   S
    Zr108  O801      3.23557      .   S
    N802   O803      2.29770      .   S
    Zr69   O803      3.23065      .   S
    N802   O804      2.30067      .   S
    Zr118  O804      3.23557      .   S
    N802   O805      2.29774      .   S
    Zr35   O805      3.23078      .   S
    N802   O806      2.30065      .   S
    Zr113  O806      3.23556      .   S
    N807   O808      2.32484      .   S
    Zr170  O808      3.26559      .   S
    N807   O809      2.32654      .   S
    Zr135  O809      3.27026      .   S
    N807   O810      2.34963      .   S
    Zr54   O810      3.30027      .   S
    N807   O811      2.34264      .   S
    Zr151  O811      3.28780  1_554   S
    N812   O813      2.30193      .   S
    Zr180  O813      3.23739      .   S
    N812   O814      2.32786      .   S
    Zr85   O814      3.27016      .   S
    N812   O815      2.32786      .   S
    Zr1    O815      3.27016      .   S
    N812   O816      2.30193      .   S
    Zr188  O816      3.23739      .   S
    N817   O818      0.48324      .   S
    Zr60   O818      1.44973      .   S
    N817   O819      0.48025      .   S
    Zr138  O819      1.44076      .   S
    N817   O820      0.48324      .   S
    Zr84   O820      1.44973      .   S
    N821   O822      2.25944      .   S
    Zr137  O822      3.18214      .   S
    N821   O823      2.30731  1_554   S
    Zr202  O823      3.23920      .   S
    N821   O824      2.28599  1_554   S
    Zr59   O824      3.22048      .   S
    N821   O825      2.33682      .   S
    Zr86   O825      3.28120      .   S
    N826   O827      2.30181      .   S
    Zr196  O827      3.23705      .   S
    N826   O828      2.32774      .   S
    Zr51   O828      3.26982      .   S
    N826   O829      2.32789      .   S
    Zr33   O829      3.27027      .   S
    N826   O830      2.30196      .   S
    Zr192  O830      3.23749      .   S
    N831   O832      2.29774      .   S
    Zr71   O832      3.23078      .   S
    N831   O833      2.30067      .   S
    Zr112  O833      3.23557      .   S
    N831   O834      2.29770      .   S
    Zr33   O834      3.23065      .   S
    N831   O835      2.30065      .   S
    Zr116  O835      3.23556      .   S
    N836   O837      2.30731  1_554   S
    Zr199  O837      3.23920      .   S
    N836   O838      2.25944      .   S
    Zr125  O838      3.18214      .   S
    N836   O839      2.28599  1_554   S
    Zr39   O839      3.22048      .   S
    N836   O840      2.33682      .   S
    Zr10   O840      3.28120      .   S
    N841   O842      2.28599      .   S
    Zr35   O842      3.22010      .   S
    N841   O843      2.30731      .   S
    Zr197  O843      3.23978      .   S
    N841   O844      2.25960      .   S
    Zr127  O844      3.18199      .   S
    N841   O845      2.33682      .   S
    Zr14   O845      3.28120      .   S
    N846   O847      2.32774      .   S
    Zr45   O847      3.26982      .   S
    N846   O848      2.32789      .   S
    Zr69   O848      3.27027      .   S
    N846   O849      2.30196      .   S
    Zr202  O849      3.23749      .   S
    N846   O850      2.30181      .   S
    Zr197  O850      3.23705      .   S
    N851   O852      2.32650      .   S
    Zr134  O852      3.27039      .   S
    N851   O853      2.34965      .   S
    Zr52   O853      3.30030      .   S
    N851   O854      2.32476      .   S
    Zr171  O854      3.26562      .   S
    N851   O855      2.34259      .   S
    Zr151  O855      3.28775      .   S
    N856   O857      2.26913      .   S
    Zr96   O857      3.20284      .   S
    N856   O858      2.26913      .   S
    Zr104  O858      3.20284      .   S
    N856   O859      2.26920      .   S
    Zr98   O859      3.20292      .   S
    N856   O860      2.26920      .   S
    Zr105  O860      3.20292      .   S
    N861   O862      0.48228      .   S
    Zr185  O862      1.44684      .   S
    N861   O863      0.48133      .   S
    Zr93   O863      1.44399      .   S
    N861   O864      0.48133      .   S
    Zr11   O864      1.44399      .   S
    N865   O866      2.30416      .   S
    Zr160  O866      3.24798      .   S
    N865   O867      2.32540      .   S
    Zr93   O867      3.27034      .   S
    N865   O868      2.30416      .   S
    Zr161  O868      3.24798      .   S
    N865   O869      2.32540      .   S
    Zr11   O869      3.27034      .   S
    N870   O871      2.34259      .   S
    Zr153  O871      3.28774  1_554   S
    N870   O872      2.32462      .   S
    Zr174  O872      3.26566      .   S
    N870   O873      2.34970      .   S
    Zr36   O873      3.30035      .   S
    N870   O874      2.32649      .   S
    Zr126  O874      3.27041      .   S
    N875   O876      2.32655      .   S
    Zr137  O876      3.27022      .   S
    N875   O877      2.34963      .   S
    Zr86   O877      3.30028      .   S
    N875   O878      2.32481      .   S
    Zr164  O878      3.26560      .   S
    N875   O879      2.34265      .   S
    Zr148  O879      3.28780      .   S
    N880   O881      2.33186      .   S
    Zr34   O881      3.27584  1_565   S
    N880   O882      2.33698      .   S
    Zr74   O882      3.28149      .   S
    N880   O883      2.33189      .   S
    Zr68   O883      3.27588      .   S
    N880   O884      2.33709      .   S
    Zr14   O884      3.28130  1_565   S
    N885   O886      2.34965      .   S
    Zr42   O886      3.30030      .   S
    N885   O887      2.32650      .   S
    Zr120  O887      3.27039      .   S
    N885   O888      2.34259      .   S
    Zr154  O888      3.28775      .   S
    N885   O889      2.32476      .   S
    Zr177  O889      3.26562      .   S
    N890   O891      2.30193      .   S
    Zr184  O891      3.23739      .   S
    N890   O892      2.30193      .   S
    Zr180  O892      3.23739      .   S
    N890   O893      2.32786      .   S
    Zr75   O893      3.27016      .   S
    N890   O894      2.32786      .   S
    Zr9    O894      3.27016      .   S
    N895   O896      2.30731      .   S
    Zr190  O896      3.23978      .   S
    N895   O897      2.33682      .   S
    Zr62   O897      3.28120      .   S
    N895   O898      2.28599      .   S
    Zr83   O898      3.22010      .   S
    N895   O899      2.25960      .   S
    Zr139  O899      3.18199      .   S
    N900   O901      2.33188      .   S
    Zr50   O901      3.27587  1_655   S
    N900   O902      2.33188      .   S
    Zr24   O902      3.27587  1_565   S
    N900   O903      2.33706      .   S
    Zr92   O903      3.28134  1_655   S
    N900   O904      2.33706      .   S
    Zr18   O904      3.28134  1_565   S
    N905   O906      2.30416      .   S
    Zr170  O906      3.24798      .   S
    N905   O907      2.30416      .   S
    Zr171  O907      3.24798  1_554   S
    N905   O908      2.32511      .   S
    Zr31   O908      3.27005      .   S
    N905   O909      2.32521      .   S
    Zr55   O909      3.27014      .   S
    N910   O911      2.30731      .   S
    Zr181  O911      3.23920      .   S
    N910   O912      2.28599      .   S
    Zr73   O912      3.22048      .   S
    N910   O913      2.25944      .   S
    Zr141  O913      3.18214      .   S
    N910   O914      2.33682      .   S
    Zr66   O914      3.28120      .   S
    N915   O916      2.32654      .   S
    Zr139  O916      3.27026      .   S
    N915   O917      2.34963      .   S
    Zr62   O917      3.30027      .   S
    N915   O918      2.34264      .   S
    Zr154  O918      3.28780  1_455   S
    N915   O919      2.32484      .   S
    Zr176  O919      3.26559      .   S
    N920   O921      2.34259      .   S
    Zr146  O921      3.28774      .   S
    N920   O922      2.34970      .   S
    Zr94   O922      3.30035      .   S
    N920   O923      2.32462      .   S
    Zr161  O923      3.26566      .   S
    N920   O924      2.32649      .   S
    Zr134  O924      3.27041      .   S
    N925   O926      2.30064      .   S
    Zr106  O926      3.23555      .   S
    N925   O927      2.29767      .   S
    Zr93   O927      3.23053      .   S
    N925   O928      2.30064      .   S
    Zr101  O928      3.23555      .   S
    N925   O929      2.29767      .   S
    Zr11   O929      3.23053      .   S
    N930   O931      2.32521      .   S
    Zr77   O931      3.27014      .   S
    N930   O932      2.30416      .   S
    Zr159  O932      3.24798      .   S
    N930   O933      2.32511      .   S
    Zr5    O933      3.27005      .   S
    N930   O934      2.30416      .   S
    Zr158  O934      3.24798      .   S
    N935   O936      2.26917      .   S
    Zr116  O936      3.20289      .   S
    N935   O937      2.26915      .   S
    Zr118  O937      3.20286      .   S
    N935   O938      2.26917      .   S
    Zr113  O938      3.20289      .   S
    N935   O939      2.26915      .   S
    Zr112  O939      3.20286      .   S
    N940   O941      2.29763      .   S
    Zr95   O941      3.23037      .   S
    N940   O942      2.30063      .   S
    Zr104  O942      3.23554      .   S
    N940   O943      2.29763      .   S
    Zr9    O943      3.23037      .   S
    N940   O944      2.30063      .   S
    Zr100  O944      3.23554      .   S
    N945   O946      2.32521      .   S
    Zr83   O946      3.27014      .   S
    N945   O947      2.30416      .   S
    Zr167  O947      3.24798      .   S
    N945   O948      2.30416      .   S
    Zr166  O948      3.24798      .   S
    N945   O949      2.32511      .   S
    Zr21   O949      3.27005      .   S
    N950   O951      2.29767      .   S
    Zr45   O951      3.23053      .   S
    N950   O952      2.30064      .   S
    Zr118  O952      3.23555      .   S
    N950   O953      2.30064      .   S
    Zr111  O953      3.23555      .   S
    N950   O954      2.29767      .   S
    Zr59   O954      3.23053      .   S
    N955   O956      2.33709      .   S
    Zr76   O956      3.28130  1_565   S
    N955   O957      2.33186      .   S
    Zr70   O957      3.27584  1_565   S
    N955   O958      2.33698      .   S
    Zr8    O958      3.28149      .   S
    N955   O959      2.33189      .   S
    Zr32   O959      3.27588      .   S
    N960   O961      2.30416      .   S
    Zr166  O961      3.24798      .   S
    N960   O962      2.32511      .   S
    Zr81   O962      3.27005      .   S
    N960   O963      2.30416      .   S
    Zr167  O963      3.24798      .   S
    N960   O964      2.32521      .   S
    Zr23   O964      3.27014      .   S
    N965   O966      2.32484      .   S
    Zr159  O966      3.26559      .   S
    N965   O967      2.32654      .   S
    Zr123  O967      3.27026      .   S
    N965   O968      2.34264      .   S
    Zr145  O968      3.28780      .   S
    N965   O969      2.34963      .   S
    Zr6    O969      3.30027      .   S
    N970   O971      2.32649      .   S
    Zr124  O971      3.27041      .   S
    N970   O972      2.34970      .   S
    Zr8    O972      3.30035      .   S
    N970   O973      2.34259      .   S
    Zr146  O973      3.28774      .   S
    N970   O974      2.32462      .   S
    Zr160  O974      3.26566      .   S
    N975   O976      2.32516      .   S
    Zr17   O976      3.27009      .   S
    N975   O977      2.32516      .   S
    Zr85   O977      3.27009      .   S
    N975   O978      2.30416      .   S
    Zr165  O978      3.24798      .   S
    N975   O979      2.30416      .   S
    Zr164  O979      3.24798      .   S
    N980   O981      2.34265      .   S
    Zr155  O981      3.28780  1_545   S
    N980   O982      2.34963      .   S
    Zr58   O982      3.30028      .   S
    N980   O983      2.32481      .   S
    Zr179  O983      3.26560      .   S
    N980   O984      2.32655      .   S
    Zr137  O984      3.27022      .   S
    N985   O986      2.30192      .   S
    Zr201  O986      3.23736      .   S
    N985   O987      2.30192      .   S
    Zr194  O987      3.23736      .   S
    N985   O988      2.32784      .   S
    Zr29   O988      3.27010      .   S
    N985   O989      2.32784      .   S
    Zr63   O989      3.27010      .   S
    N990   O991      2.32786      .   S
    Zr47   O991      3.27016      .   S
    N990   O992      2.30193      .   S
    Zr203  O992      3.23739      .   S
    N990   O993      2.32786      .   S
    Zr65   O993      3.27016      .   S
    N990   O994      2.30193      .   S
    Zr198  O994      3.23739      .   S
    N995   O996      2.28599      .   S
    Zr87   O996      3.22048      .   S
    N995   O997      2.25944      .   S
    Zr137  O997      3.18214      .   S
    N995   O998      2.33682      .   S
    Zr58   O998      3.28120      .   S
    N995   O999      2.30731      .   S
    Zr189  O999      3.23920      .   S
    N1000  O1001     2.30064      .   S
    Zr98   O1001     3.23555      .   S
    N1000  O1002     2.30064      .   S
    Zr105  O1002     3.23555      .   S
    N1000  O1003     2.29767      .   S
    Zr19   O1003     3.23053      .   S
    N1000  O1004     2.29767      .   S
    Zr87   O1004     3.23053      .   S
    N1005  O1006     0.48228      .   S
    Zr190  O1006     1.44684      .   S
    N1005  O1007     0.48152      .   S
    Zr83   O1007     1.44455      .   S
    N1005  O1008     0.48124      .   S
    Zr21   O1008     1.44373      .   S
    N1009  O1010     2.33709      .   S
    Zr82   O1010     3.28130  1_655   S
    N1009  O1011     2.33189      .   S
    Zr42   O1011     3.27588      .   S
    N1009  O1012     2.33186      .   S
    Zr62   O1012     3.27584  1_655   S
    N1009  O1013     2.33698      .   S
    Zr0    O1013     3.28149      .   S
    N1014  O1015     2.34259      .   S
    Zr152  O1015     3.28775      .   S
    N1014  O1016     2.32650      .   S
    Zr142  O1016     3.27039      .   S
    N1014  O1017     2.34965      .   S
    Zr68   O1017     3.30030      .   S
    N1014  O1018     2.32476      .   S
    Zr172  O1018     3.26562      .   S
    N1019  O1020     2.32649      .   S
    Zr136  O1020     3.27041      .   S
    N1019  O1021     2.34970      .   S
    Zr56   O1021     3.30035      .   S
    N1019  O1022     2.34259      .   S
    Zr155  O1022     3.28774  1_554   S
    N1019  O1023     2.32462      .   S
    Zr178  O1023     3.26566      .   S
    N1024  O1025     2.32484      .   S
    Zr163  O1025     3.26559      .   S
    N1024  O1026     2.34264      .   S
    Zr147  O1026     3.28780      .   S
    N1024  O1027     2.32654      .   S
    Zr135  O1027     3.27026      .   S
    N1024  O1028     2.34963      .   S
    Zr88   O1028     3.30027      .   S
    N1029  O1030     2.30416      .   S
    Zr165  O1030     3.24798      .   S
    N1029  O1031     2.32540      .   S
    Zr87   O1031     3.27034      .   S
    N1029  O1032     2.32540      .   S
    Zr19   O1032     3.27034      .   S
    N1029  O1033     2.30416      .   S
    Zr164  O1033     3.24798      .   S
    N1034  O1035     2.33706      .   S
    Zr50   O1035     3.28134      .   S
    N1034  O1036     2.33188      .   S
    Zr92   O1036     3.27587      .   S
    N1034  O1037     2.33706      .   S
    Zr38   O1037     3.28134      .   S
    N1034  O1038     2.33188      .   S
    Zr10   O1038     3.27587      .   S
    N1039  O1040     2.34265      .   S
    Zr150  O1040     3.28780  1_455   S
    N1039  O1041     2.32655      .   S
    Zr133  O1041     3.27022      .   S
    N1039  O1042     2.32481      .   S
    Zr169  O1042     3.26560      .   S
    N1039  O1043     2.34963      .   S
    Zr50   O1043     3.30028      .   S
    N1044  O1045     2.34264      .   S
    Zr147  O1045     3.28780      .   S
    N1044  O1046     2.32484      .   S
    Zr163  O1046     3.26559      .   S
    N1044  O1047     2.34963      .   S
    Zr14   O1047     3.30027      .   S
    N1044  O1048     2.32654      .   S
    Zr127  O1048     3.27026      .   S
    N1049  O1050     2.32476      .   S
    Zr158  O1050     3.26562      .   S
    N1049  O1051     2.34965      .   S
    Zr78   O1051     3.30030      .   S
    N1049  O1052     2.34259      .   S
    Zr145  O1052     3.28775      .   S
    N1049  O1053     2.32650      .   S
    Zr140  O1053     3.27039      .   S
    N1054  O1055     0.48300      .   S
    Zr146  O1055     1.44901      .   S
    N1054  O1056     0.48156      .   S
    Zr160  O1056     1.44469      .   S
    N1054  O1057     0.48156      .   S
    Zr161  O1057     1.44469      .   S
    N1058  O1059     2.30067      .   S
    Zr105  O1059     3.23557      .   S
    N1058  O1060     2.29770      .   S
    Zr91   O1060     3.23065      .   S
    N1058  O1061     2.29774      .   S
    Zr15   O1061     3.23078      .   S
    N1058  O1062     2.30065      .   S
    Zr103  O1062     3.23556      .   S
    N1063  O1064     2.30731      .   S
    Zr190  O1064     3.23937      .   S
    N1063  O1065     2.25950      .   S
    Zr130  O1065     3.18208      .   S
    N1063  O1066     2.33682      .   S
    Zr26   O1066     3.28120      .   S
    N1063  O1067     2.28599      .   S
    Zr21   O1067     3.22032      .   S
    N1068  O1069     2.30416      .   S
    Zr163  O1069     3.24798      .   S
    N1068  O1070     2.32521      .   S
    Zr89   O1070     3.27014      .   S
    N1068  O1071     2.30416      .   S
    Zr162  O1071     3.24798      .   S
    N1068  O1072     2.32511      .   S
    Zr13   O1072     3.27005      .   S
    N1073  O1074     2.30731      .   S
    Zr180  O1074     3.23930      .   S
    N1073  O1075     2.33682      .   S
    Zr42   O1075     3.28120      .   S
    N1073  O1076     2.25949      .   S
    Zr120  O1076     3.18210      .   S
    N1073  O1077     2.28599      .   S
    Zr1    O1077     3.22071      .   S
    N1078  O1079     0.48124      .   S
    Zr79   O1079     1.44373      .   S
    N1078  O1080     0.48228      .   S
    Zr183  O1080     1.44684      .   S
    N1078  O1081     0.48152      .   S
    Zr7    O1081     1.44455      .   S
    N1082  O1083     2.26920      .   S
    Zr115  O1083     3.20292      .   S
    N1082  O1084     2.26920      .   S
    Zr117  O1084     3.20292      .   S
    N1082  O1085     2.26913      .   S
    Zr114  O1085     3.20284      .   S
    N1082  O1086     2.26913      .   S
    Zr119  O1086     3.20284      .   S
    N1087  O1088     2.32540      .   S
    Zr39   O1088     3.27034      .   S
    N1087  O1089     2.30416      .   S
    Zr174  O1089     3.24798  1_455   S
    N1087  O1090     2.32540      .   S
    Zr67   O1090     3.27034      .   S
    N1087  O1091     2.30416      .   S
    Zr175  O1091     3.24798  1_554   S
    N1092  O1093     2.33186      .   S
    Zr88   O1093     3.27584      .   S
    N1092  O1094     2.33709      .   S
    Zr54   O1094     3.28130      .   S
    N1092  O1095     2.33189      .   S
    Zr12   O1095     3.27588      .   S
    N1092  O1096     2.33698      .   S
    Zr36   O1096     3.28149      .   S
    N1097  O1098     2.34963      .   S
    Zr76   O1098     3.30027      .   S
    N1097  O1099     2.32654      .   S
    Zr143  O1099     3.27026      .   S
    N1097  O1100     2.34264      .   S
    Zr145  O1100     3.28780      .   S
    N1097  O1101     2.32484      .   S
    Zr159  O1101     3.26559      .   S
    N1102  O1103     2.29767      .   S
    Zr73   O1103     3.23053      .   S
    N1102  O1104     2.29767      .   S
    Zr3    O1104     3.23053      .   S
    N1102  O1105     2.30064      .   S
    Zr102  O1105     3.23555      .   S
    N1102  O1106     2.30064      .   S
    Zr97   O1106     3.23555      .   S
    N1107  O1108     2.33187      .   S
    Zr46   O1108     3.27586  1_565   S
    N1107  O1109     2.33187      .   S
    Zr56   O1109     3.27586  1_556   S
    N1107  O1110     2.33704      .   S
    Zr80   O1110     3.28138  1_556   S
    N1107  O1111     2.33704      .   S
    Zr4    O1111     3.28138  1_565   S
    N1112  O1113     2.34259      .   S
    Zr150  O1113     3.28774  1_545   S
    N1112  O1114     2.32462      .   S
    Zr168  O1114     3.26566      .   S
    N1112  O1115     2.32649      .   S
    Zr132  O1115     3.27041      .   S
    N1112  O1116     2.34970      .   S
    Zr48   O1116     3.30035      .   S
    N1117  O1118     2.30731      .   S
    Zr186  O1118     3.23937      .   S
    N1117  O1119     2.33682      .   S
    Zr36   O1119     3.28120      .   S
    N1117  O1120     2.25950      .   S
    Zr126  O1120     3.18208      .   S
    N1117  O1121     2.28599      .   S
    Zr13   O1121     3.22032      .   S
    N1122  O1123     2.32774      .   S
    Zr73   O1123     3.26982      .   S
    N1122  O1124     2.30196      .   S
    Zr181  O1124     3.23749      .   S
    N1122  O1125     2.30181      .   S
    Zr186  O1125     3.23705      .   S
    N1122  O1126     2.32789      .   S
    Zr13   O1126     3.27027      .   S
    N1127  O1128     2.33186      .   S
    Zr40   O1128     3.27584  1_655   S
    N1127  O1129     2.33698      .   S
    Zr84   O1129     3.28149      .   S
    N1127  O1130     2.33709      .   S
    Zr6    O1130     3.28130  1_655   S
    N1127  O1131     2.33189      .   S
    Zr60   O1131     3.27588      .   S
    N1132  O1133     2.30065      .   S
    Zr113  O1133     3.23556      .   S
    N1132  O1134     2.30067      .   S
    Zr111  O1134     3.23557      .   S
    N1132  O1135     2.29770      .   S
    Zr31   O1135     3.23065      .   S
    N1132  O1136     2.29774      .   S
    Zr55   O1136     3.23078      .   S
    N1137  O1138     2.32540      .   S
    Zr45   O1138     3.27034      .   S
    N1137  O1139     2.30416      .   S
    Zr178  O1139     3.24798  1_545   S
    N1137  O1140     2.30416      .   S
    Zr179  O1140     3.24798  1_554   S
    N1137  O1141     2.32540      .   S
    Zr59   O1141     3.27034      .   S
    N1142  O1143     2.29763      .   S
    Zr49   O1143     3.23037      .   S
    N1142  O1144     2.30063      .   S
    Zr114  O1144     3.23554      .   S
    N1142  O1145     2.30063      .   S
    Zr109  O1145     3.23554      .   S
    N1142  O1146     2.29763      .   S
    Zr27   O1146     3.23037      .   S
    N1147  O1148     2.30416      .   S
    Zr168  O1148     3.24798  1_455   S
    N1147  O1149     2.30416      .   S
    Zr169  O1149     3.24798  1_545   S
    N1147  O1150     2.32540      .   S
    Zr25   O1150     3.27034      .   S
    N1147  O1151     2.32540      .   S
    Zr51   O1151     3.27034      .   S
    N1152  O1153     0.48122      .   S
    Zr115  O1153     1.44366      .   S
    N1152  O1154     0.48108      .   S
    Zr110  O1154     1.44325      .   S
    N1152  O1155     0.48122      .   S
    Zr117  O1155     1.44366      .   S
    N1156  O1157     2.29774      .   S
    Zr29   O1157     3.23078      .   S
    N1156  O1158     2.30067      .   S
    Zr115  O1158     3.23557      .   S
    N1156  O1159     2.29770      .   S
    Zr53   O1159     3.23065      .   S
    N1156  O1160     2.30065      .   S
    Zr110  O1160     3.23556      .   S
    N1161  O1162     2.26913      .   S
    Zr114  O1162     3.20284      .   S
    N1161  O1163     2.26913      .   S
    Zr109  O1163     3.20284      .   S
    N1161  O1164     2.26920      .   S
    Zr112  O1164     3.20292      .   S
    N1161  O1165     2.26920      .   S
    Zr108  O1165     3.20292      .   S
    N1166  O1167     0.48324      .   S
    Zr32   O1167     1.44973      .   S
    N1166  O1168     0.48324      .   S
    Zr8    O1168     1.44973      .   S
    N1166  O1169     0.48025      .   S
    Zr124  O1169     1.44076      .   S
    N1170  O1171     2.29767      .   S
    Zr39   O1171     3.23053      .   S
    N1170  O1172     2.29767      .   S
    Zr67   O1172     3.23053      .   S
    N1170  O1173     2.30064      .   S
    Zr115  O1173     3.23555      .   S
    N1170  O1174     2.30064      .   S
    Zr117  O1174     3.23555      .   S
    N1175  O1176     2.32521      .   S
    Zr35   O1176     3.27014      .   S
    N1175  O1177     2.30416      .   S
    Zr172  O1177     3.24798  1_545   S
    N1175  O1178     2.32511      .   S
    Zr69   O1178     3.27005      .   S
    N1175  O1179     2.30416      .   S
    Zr173  O1179     3.24798      .   S
    N1180  O1181     2.30063      .   S
    Zr119  O1181     3.23554      .   S
    N1180  O1182     2.29763      .   S
    Zr47   O1182     3.23037      .   S
    N1180  O1183     2.29763      .   S
    Zr57   O1183     3.23037      .   S
    N1180  O1184     2.30063      .   S
    Zr109  O1184     3.23554      .   S
    N1185  O1186     2.32516      .   S
    Zr57   O1186     3.27009      .   S
    N1185  O1187     2.30416      .   S
    Zr178  O1187     3.24798  1_545   S
    N1185  O1188     2.32516      .   S
    Zr47   O1188     3.27009      .   S
    N1185  O1189     2.30416      .   S
    Zr179  O1189     3.24798  1_554   S
    N1190  O1191     2.34259      .   S
    Zr147  O1191     3.28775      .   S
    N1190  O1192     2.32650      .   S
    Zr132  O1192     3.27039      .   S
    N1190  O1193     2.34965      .   S
    Zr90   O1193     3.30030      .   S
    N1190  O1194     2.32476      .   S
    Zr162  O1194     3.26562      .   S
    N1195  O1196     2.34265      .   S
    Zr153  O1196     3.28780  1_554   S
    N1195  O1197     2.32481      .   S
    Zr174  O1197     3.26560      .   S
    N1195  O1198     2.34963      .   S
    Zr66   O1198     3.30028      .   S
    N1195  O1199     2.32655      .   S
    Zr141  O1199     3.27022      .   S
    N1200  O1201     0.48117      .   S
    Zr96   O1201     1.44352      .   S
    N1200  O1202     0.48117      .   S
    Zr104  O1202     1.44352      .   S
    N1200  O1203     0.48117      .   S
    Zr100  O1203     1.44352      .   S
    N1204  O1205     2.33704      .   S
    Zr60   O1205     3.28138      .   S
    N1204  O1206     2.33704      .   S
    Zr30   O1206     3.28138      .   S
    N1204  O1207     2.33187      .   S
    Zr84   O1207     3.27586      .   S
    N1204  O1208     2.33187      .   S
    Zr16   O1208     3.27586      .   S
    N1209  O1210     2.28599      .   S
    Zr63   O1210     3.22010      .   S
    N1209  O1211     2.33682      .   S
    Zr82   O1211     3.28120      .   S
    N1209  O1212     2.25960      .   S
    Zr139  O1212     3.18199      .   S
    N1209  O1213     2.30731      .   S
    Zr201  O1213     3.23978      .   S
    N1214  O1215     0.48228      .   S
    Zr197  O1215     1.44684      .   S
    N1214  O1216     0.48124      .   S
    Zr69   O1216     1.44373      .   S
    N1214  O1217     0.48152      .   S
    Zr35   O1217     1.44455      .   S
    N1218  O1219     0.48324      .   S
    Zr6    O1219     1.44973      .   S
    N1218  O1220     0.48324      .   S
    Zr40   O1220     1.44973      .   S
    N1218  O1221     0.48025      .   S
    Zr123  O1221     1.44076      .   S
    N1222  O1223     0.48228      .   S
    Zr200  O1223     1.44684      .   S
    N1222  O1224     0.48152      .   S
    Zr41   O1224     1.44455      .   S
    N1222  O1225     0.48124      .   S
    Zr61   O1225     1.44373      .   S
    N1226  O1227     2.34259      .   S
    Zr148  O1227     3.28774      .   S
    N1226  O1228     2.32649      .   S
    Zr138  O1228     3.27041      .   S
    N1226  O1229     2.32462      .   S
    Zr165  O1229     3.26566      .   S
    N1226  O1230     2.34970      .   S
    Zr84   O1230     3.30035      .   S
    N1231  O1232     2.32481      .   S
    Zr160  O1232     3.26560      .   S
    N1231  O1233     2.34265      .   S
    Zr146  O1233     3.28780      .   S
    N1231  O1234     2.32655      .   S
    Zr133  O1234     3.27022      .   S
    N1231  O1235     2.34963      .   S
    Zr92   O1235     3.30028      .   S
    N1236  O1237     2.33682      .   S
    Zr60   O1237     3.28120      .   S
    N1236  O1238     2.28599      .   S
    Zr85   O1238     3.22071      .   S
    N1236  O1239     2.25949      .   S
    Zr138  O1239     3.18210      .   S
    N1236  O1240     2.30731      .   S
    Zr188  O1240     3.23930      .   S
    N1241  O1242     2.30192      .   S
    Zr187  O1242     3.23736      .   S
    N1241  O1243     2.32784      .   S
    Zr77   O1243     3.27010      .   S
    N1241  O1244     2.30192      .   S
    Zr182  O1244     3.23736      .   S
    N1241  O1245     2.32784      .   S
    Zr15   O1245     3.27010      .   S
    N1246  O1247     0.48324      .   S
    Zr86   O1247     1.44973      .   S
    N1246  O1248     0.48324      .   S
    Zr58   O1248     1.44973      .   S
    N1246  O1249     0.48025      .   S
    Zr137  O1249     1.44076      .   S
    N1250  O1251     2.25960      .   S
    Zr135  O1251     3.18199      .   S
    N1250  O1252     2.33682      .   S
    Zr54   O1252     3.28120      .   S
    N1250  O1253     2.28599      .   S
    Zr89   O1253     3.22010      .   S
    N1250  O1254     2.30731      .   S
    Zr186  O1254     3.23978      .   S
    N1255  O1256     2.30181      .   S
    Zr190  O1256     3.23705      .   S
    N1255  O1257     2.30196      .   S
    Zr185  O1257     3.23749      .   S
    N1255  O1258     2.32774      .   S
    Zr93   O1258     3.26982      .   S
    N1255  O1259     2.32789      .   S
    Zr21   O1259     3.27027      .   S
    N1260  O1261     2.28599  1_545   S
    Zr51   O1261     3.22048      .   S
    N1260  O1262     2.33682      .   S
    Zr92   O1262     3.28120      .   S
    N1260  O1263     2.30731  1_545   S
    Zr192  O1263     3.23920      .   S
    N1260  O1264     2.25944      .   S
    Zr133  O1264     3.18214      .   S
    N1265  O1266     2.34259      .   S
    Zr147  O1266     3.28775      .   S
    N1265  O1267     2.32476      .   S
    Zr162  O1267     3.26562      .   S
    N1265  O1268     2.34965      .   S
    Zr12   O1268     3.30030      .   S
    N1265  O1269     2.32650      .   S
    Zr126  O1269     3.27039      .   S
    N1270  O1271     2.33189      .   S
    Zr90   O1271     3.27588      .   S
    N1270  O1272     2.33709      .   S
    Zr34   O1272     3.28130      .   S
    N1270  O1273     2.33698      .   S
    Zr48   O1273     3.28149      .   S
    N1270  O1274     2.33186      .   S
    Zr14   O1274     3.27584      .   S
    N1275  O1276     0.48300      .   S
    Zr145  O1276     1.44901      .   S
    N1275  O1277     0.48156      .   S
    Zr158  O1277     1.44469      .   S
    N1275  O1278     0.48156      .   S
    Zr159  O1278     1.44469      .   S
    N1279  O1280     0.48228      .   S
    Zr189  O1280     1.44684      .   S
    N1279  O1281     0.48133      .   S
    Zr19   O1281     1.44399      .   S
    N1279  O1282     0.48133      .   S
    Zr87   O1282     1.44399      .   S
    N1283  O1284     0.48300      .   S
    Zr149  O1284     1.44901      .   S
    N1283  O1285     0.48156      .   S
    Zr166  O1285     1.44469      .   S
    N1283  O1286     0.48156      .   S
    Zr167  O1286     1.44469      .   S
    N1287  O1288     0.48324      .   S
    Zr94   O1288     1.44973      .   S
    N1287  O1289     0.48025      .   S
    Zr134  O1289     1.44076      .   S
    N1287  O1290     0.48324      .   S
    Zr52   O1290     1.44973      .   S
    N1291  O1292     0.48324      .   S
    Zr76   O1292     1.44973      .   S
    N1291  O1293     0.48025      .   S
    Zr143  O1293     1.44076      .   S
    N1291  O1294     0.48324      .   S
    Zr70   O1294     1.44973      .   S
    N1295  O1296     0.48124      .   S
    Zr5    O1296     1.44373      .   S
    N1295  O1297     0.48228      .   S
    Zr182  O1297     1.44684      .   S
    N1295  O1298     0.48152      .   S
    Zr77   O1298     1.44455      .   S
    N1299  O1300     0.48228      .   S
    Zr196  O1300     1.44684      .   S
    N1299  O1301     0.48152      .   S
    Zr71   O1301     1.44455      .   S
    N1299  O1302     0.48124      .   S
    Zr33   O1302     1.44373      .   S
    N1303  O1304     0.48122      .   S
    Zr101  O1304     1.44366      .   S
    N1303  O1305     0.48108      .   S
    Zr99   O1305     1.44325      .   S
    N1303  O1306     0.48122      .   S
    Zr106  O1306     1.44366      .   S
    N1307  O1308     0.48156  1_556   S
    Zr179  O1308     1.44469      .   S
    N1307  O1309     0.48156  1_565   S
    Zr178  O1309     1.44469      .   S
    N1307  O1310     0.48300  1_566   S
    Zr155  O1310     1.44901      .   S
    N1311  O1312     0.48228      .   S
    Zr180  O1312     1.44684      .   S
    N1311  O1313     0.48148      .   S
    Zr75   O1313     1.44445      .   S
    N1311  O1314     0.48148      .   S
    Zr1    O1314     1.44445      .   S
    N1315  O1316     0.48324      .   S
    Zr4    O1316     1.44973      .   S
    N1315  O1317     0.48324      .   S
    Zr46   O1317     1.44973      .   S
    N1315  O1318     0.48025      .   S
    Zr122  O1318     1.44076      .   S
    N1319  O1320     0.48228      .   S
    Zr188  O1320     1.44684      .   S
    N1319  O1321     0.48148      .   S
    Zr17   O1321     1.44445      .   S
    N1319  O1322     0.48148      .   S
    Zr85   O1322     1.44445      .   S
    N1323  O1324     0.48324      .   S
    Zr44   O1324     1.44973      .   S
    N1323  O1325     0.48324      .   S
    Zr2    O1325     1.44973      .   S
    N1323  O1326     0.48025      .   S
    Zr121  O1326     1.44076      .   S
    N1327  O1328     0.48228      .   S
    Zr192  O1328     1.44684      .   S
    N1327  O1329     0.48133      .   S
    Zr51   O1329     1.44399      .   S
    N1327  O1330     0.48133      .   S
    Zr25   O1330     1.44399      .   S
    N1331  O1332     2.26917      .   S
    Zr116  O1332     3.20289      .   S
    N1331  O1333     2.26915      .   S
    Zr117  O1333     3.20286      .   S
    N1331  O1334     2.26915      .   S
    Zr108  O1334     3.20286      .   S
    N1331  O1335     2.26917      .   S
    Zr110  O1335     3.20289      .   S
    N1336  O1337     0.48228      .   S
    Zr195  O1337     1.44684      .   S
    N1336  O1338     0.48152      .   S
    Zr55   O1338     1.44455      .   S
    N1336  O1339     0.48124      .   S
    Zr31   O1339     1.44373      .   S
    N1340  O1341     0.48324      .   S
    Zr62   O1341     1.44973      .   S
    N1340  O1342     0.48025      .   S
    Zr139  O1342     1.44076      .   S
    N1340  O1343     0.48324      .   S
    Zr82   O1343     1.44973      .   S
    N1344  O1345     0.48228      .   S
    Zr187  O1345     1.44684      .   S
    N1344  O1346     0.48124      .   S
    Zr91   O1346     1.44373      .   S
    N1344  O1347     0.48152      .   S
    Zr15   O1347     1.44455      .   S
    N1348  O1349     0.48025      .   S
    Zr128  O1349     1.44076      .   S
    N1348  O1350     0.48324      .   S
    Zr16   O1350     1.44973      .   S
    N1348  O1351     0.48324      .   S
    Zr30   O1351     1.44973      .   S
    N1352  O1353     0.48324      .   S
    Zr34   O1353     1.44973      .   S
    N1352  O1354     0.48025      .   S
    Zr127  O1354     1.44076      .   S
    N1352  O1355     0.48324      .   S
    Zr14   O1355     1.44973      .   S
    N1356  O1357     0.48300  1_655   S
    Zr154  O1357     1.44901      .   S
    N1356  O1358     0.48156      .   S
    Zr176  O1358     1.44469      .   S
    N1356  O1359     0.48156  1_655   S
    Zr177  O1359     1.44469      .   S
    N1360  O1361     0.48300      .   S
    Zr144  O1361     1.44901      .   S
    N1360  O1362     0.48156      .   S
    Zr157  O1362     1.44469      .   S
    N1360  O1363     0.48156      .   S
    Zr156  O1363     1.44469      .   S
    N1364  O1365     0.48228      .   S
    Zr199  O1365     1.44684      .   S
    N1364  O1366     0.48133      .   S
    Zr67   O1366     1.44399      .   S
    N1364  O1367     0.48133      .   S
    Zr39   O1367     1.44399      .   S
    N1368  O1369     0.48324      .   S
    Zr0    O1369     1.44973      .   S
    N1368  O1370     0.48324      .   S
    Zr42   O1370     1.44973      .   S
    N1368  O1371     0.48025      .   S
    Zr120  O1371     1.44076      .   S
    N1372  O1373     0.48324      .   S
    Zr66   O1373     1.44973      .   S
    N1372  O1374     0.48324      .   S
    Zr72   O1374     1.44973      .   S
    N1372  O1375     0.48025      .   S
    Zr141  O1375     1.44076      .   S
    N1376  O1377     0.48228      .   S
    Zr194  O1377     1.44684      .   S
    N1376  O1378     0.48152      .   S
    Zr29   O1378     1.44455      .   S
    N1376  O1379     0.48124      .   S
    Zr53   O1379     1.44373      .   S
    N1380  O1381     0.48324      .   S
    Zr80   O1381     1.44973      .   S
    N1380  O1382     0.48324      .   S
    Zr56   O1382     1.44973      .   S
    N1380  O1383     0.48025      .   S
    Zr136  O1383     1.44076      .   S
    N1384  O1385     0.48122      .   S
    Zr108  O1385     1.44366      .   S
    N1384  O1386     0.48122      .   S
    Zr112  O1386     1.44366      .   S
    N1384  O1387     0.48108      .   S
    Zr116  O1387     1.44325      .   S
    N1388  O1389     0.48228      .   S
    Zr191  O1389     1.44684      .   S
    N1388  O1390     0.48152      .   S
    Zr23   O1390     1.44455      .   S
    N1388  O1391     0.48124      .   S
    Zr81   O1391     1.44373      .   S
    N1392  O1393     0.48156  1_655   S
    Zr174  O1393     1.44469      .   S
    N1392  O1394     0.48300  1_656   S
    Zr153  O1394     1.44901      .   S
    N1392  O1395     0.48156  1_556   S
    Zr175  O1395     1.44469      .   S
    N1396  O1397     0.48228      .   S
    Zr202  O1397     1.44684      .   S
    N1396  O1398     0.48133      .   S
    Zr45   O1398     1.44399      .   S
    N1396  O1399     0.48133      .   S
    Zr59   O1399     1.44399      .   S
    N1400  O1401     0.48324      .   S
    Zr22   O1401     1.44973      .   S
    N1400  O1402     0.48324      .   S
    Zr28   O1402     1.44973      .   S
    N1400  O1403     0.48025      .   S
    Zr131  O1403     1.44076      .   S
    N1404  O1405     0.48156  1_565   S
    Zr169  O1405     1.44469      .   S
    N1404  O1406     0.48300  1_665   S
    Zr150  O1406     1.44901      .   S
    N1404  O1407     0.48156  1_655   S
    Zr168  O1407     1.44469      .   S
    N1408  O1409     0.48122      .   S
    Zr102  O1409     1.44366      .   S
    N1408  O1410     0.48108      .   S
    Zr107  O1410     1.44325      .   S
    N1408  O1411     0.48122      .   S
    Zr97   O1411     1.44366      .   S
    N1412  O1413     0.48148      .   S
    Zr95   O1413     1.44445      .   S
    N1412  O1414     0.48228      .   S
    Zr184  O1414     1.44684      .   S
    N1412  O1415     0.48148      .   S
    Zr9    O1415     1.44445      .   S
    N1416  O1417     0.48300      .   S
    Zr148  O1417     1.44901      .   S
    N1416  O1418     0.48156      .   S
    Zr164  O1418     1.44469      .   S
    N1416  O1419     0.48156      .   S
    Zr165  O1419     1.44469      .   S
    N1420  O1421     0.48324      .   S
    Zr64   O1421     1.44973      .   S
    N1420  O1422     0.48324      .   S
    Zr78   O1422     1.44973      .   S
    N1420  O1423     0.48025      .   S
    Zr140  O1423     1.44076      .   S
    N1424  O1425     0.48324      .   S
    Zr74   O1425     1.44973      .   S
    N1424  O1426     0.48324      .   S
    Zr68   O1426     1.44973      .   S
    N1424  O1427     0.48025      .   S
    Zr142  O1427     1.44076      .   S
    N1428  O1429     0.48324      .   S
    Zr48   O1429     1.44973      .   S
    N1428  O1430     0.48025      .   S
    Zr132  O1430     1.44076      .   S
    N1428  O1431     0.48324      .   S
    Zr90   O1431     1.44973      .   S
    N1432  O1433     0.48228      .   S
    Zr186  O1433     1.44684      .   S
    N1432  O1434     0.48152      .   S
    Zr89   O1434     1.44455      .   S
    N1432  O1435     0.48124      .   S
    Zr13   O1435     1.44373      .   S
    N1436  O1437     0.48300  1_565   S
    Zr152  O1437     1.44901      .   S
    N1436  O1438     0.48156      .   S
    Zr173  O1438     1.44469      .   S
    N1436  O1439     0.48156  1_565   S
    Zr172  O1439     1.44469      .   S
    N1440  O1441     0.48300  1_556   S
    Zr151  O1441     1.44901      .   S
    N1440  O1442     0.48156  1_556   S
    Zr171  O1442     1.44469      .   S
    N1440  O1443     0.48156      .   S
    Zr170  O1443     1.44469      .   S
    N1444  O1445     0.48228      .   S
    Zr201  O1445     1.44684      .   S
    N1444  O1446     0.48152      .   S
    Zr63   O1446     1.44455      .   S
    N1444  O1447     0.48124      .   S
    Zr43   O1447     1.44373      .   S
    N1448  O1449     0.48324      .   S
    Zr88   O1449     1.44973      .   S
    N1448  O1450     0.48324      .   S
    Zr54   O1450     1.44973      .   S
    N1448  O1451     0.48025      .   S
    Zr135  O1451     1.44076      .   S
    N1452  O1453     0.48228      .   S
    Zr181  O1453     1.44684      .   S
    N1452  O1454     0.48133      .   S
    Zr73   O1454     1.44399      .   S
    N1452  O1455     0.48133      .   S
    Zr3    O1455     1.44399      .   S
    N1456  O1457     0.48228      .   S
    Zr203  O1457     1.44684      .   S
    N1456  O1458     0.48148      .   S
    Zr57   O1458     1.44445      .   S
    N1456  O1459     0.48148      .   S
    Zr47   O1459     1.44445      .   S
    N1460  O1461     0.48228      .   S
    Zr193  O1461     1.44684      .   S
    N1460  O1462     0.48148      .   S
    Zr49   O1462     1.44445      .   S
    N1460  O1463     0.48148      .   S
    Zr27   O1463     1.44445      .   S
    N1464  O1465     0.48324      .   S
    Zr12   O1465     1.44973      .   S
    N1464  O1466     0.48324      .   S
    Zr36   O1466     1.44973      .   S
    N1464  O1467     0.48025      .   S
    Zr126  O1467     1.44076      .   S
    N1468  O1469     0.48117      .   S
    Zr114  O1469     1.44352      .   S
    N1468  O1470     0.48117      .   S
    Zr109  O1470     1.44352      .   S
    N1468  O1471     0.48117      .   S
    Zr119  O1471     1.44352      .   S
    N1472  O1473     0.48122      .   S
    Zr105  O1473     1.44366      .   S
    N1472  O1474     0.48122      .   S
    Zr98   O1474     1.44366      .   S
    N1472  O1475     0.48108      .   S
    Zr103  O1475     1.44325      .   S
    N1476  O1477     0.48300      .   S
    Zr147  O1477     1.44901      .   S
    N1476  O1478     0.48156      .   S
    Zr162  O1478     1.44469      .   S
    N1476  O1479     0.48156      .   S
    Zr163  O1479     1.44469      .   S
    N1480  O1481     0.48324      .   S
    Zr26   O1481     1.44973      .   S
    N1480  O1482     0.48025      .   S
    Zr130  O1482     1.44076      .   S
    N1480  O1483     0.48324      .   S
    Zr20   O1483     1.44973      .   S
    N1484  O1485     0.48228      .   S
    Zr198  O1485     1.44684      .   S
    N1484  O1486     0.48148      .   S
    Zr37   O1486     1.44445      .   S
    N1484  O1487     0.48148      .   S
    Zr65   O1487     1.44445      .   S
    N1488  O1489     0.48122      .   S
    Zr118  O1489     1.44366      .   S
    N1488  O1490     0.48108      .   S
    Zr113  O1490     1.44325      .   S
    N1488  O1491     0.48122      .   S
    Zr111  O1491     1.44366      .   S
    N1492  O1493     0.48324      .   S
    Zr38   O1493     1.44973      .   S
    N1492  O1494     0.48324      .   S
    Zr10   O1494     1.44973      .   S
    N1492  O1495     0.48025      .   S
    Zr125  O1495     1.44076      .   S
