# CIF file generated by openbabel 2.4.90, see http://openbabel.sf.net
data_I
_chemical_name_common ''
_cell_length_a 62.8399
_cell_length_b 62.8399
_cell_length_c 62.8399
_cell_angle_alpha 60
_cell_angle_beta 60
_cell_angle_gamma 60
_space_group_name_H-M_alt 'P 1'
_space_group_name_Hall 'P 1'
loop_
    _symmetry_equiv_pos_as_xyz
    x,y,z
loop_
    _atom_site_label
    _atom_site_type_symbol
    _atom_site_fract_x
    _atom_site_fract_y
    _atom_site_fract_z
    _atom_site_occupancy
    C0      C    0.11423   0.28384   0.65770   1.000
    C1      C    0.30656   0.35963   0.53034   1.000
    C2      C    0.42240   0.46092   0.54723   1.000
    C3      C    0.36102   0.39955   0.51247   1.000
    C4      C    0.37603   0.41455   0.50403   1.000
    C5      C    0.31679   0.40521   0.42746   1.000
    C6      C    0.31227   0.38220   0.47489   1.000
    C7      C    0.31089   0.40641   0.45167   1.000
    C8      C    0.30458   0.43068   0.45304   1.000
    C9      C    0.18594   0.20837   0.64843   1.000
    C10     C    0.15936   0.25305   0.62501   1.000
    C11     C    0.18218   0.22795   0.62494   1.000
    C12     C    0.20145   0.22390   0.60143   1.000
    C13     C    0.16297   0.26799   0.70516   1.000
    C14     C    0.14404   0.29961   0.66831   1.000
    C15     C    0.15870   0.29240   0.68530   1.000
    C16     C    0.17681   0.26152   0.72083   1.000
    C17     C    0.20310   0.27199   0.73261   1.000
    C18     C    0.18675   0.27927   0.71726   1.000
    C19     C    0.16851   0.31016   0.68190   1.000
    C20     C    0.18222   0.30374   0.69757   1.000
    C21     C    0.28425   0.32264   0.62099   1.000
    C22     C    0.27520   0.31363   0.64841   1.000
    C23     C    0.32224   0.24194   0.53632   1.000
    C24     C    0.34166   0.27304   0.52830   1.000
    C25     C    0.33972   0.24672   0.53987   1.000
    C26     C    0.31889   0.21750   0.54938   1.000
    C27     C    0.07796   0.33257   0.66808   1.000
    C28     C    0.33299   0.19747   0.56615   1.000
    C29     C    0.35438   0.22638   0.55592   1.000
    C30     C    0.35111   0.20213   0.56881   1.000
    C31     C    0.42559   0.46103   0.50214   1.000
    C32     C    0.33327   0.36883   0.52525   1.000
    C33     C    0.40801   0.44352   0.48477   1.000
    C34     C    0.30637   0.38370   0.49673   1.000
    C35     C    0.36082   0.31969   0.47176   1.000
    C36     C    0.14341   0.25626   0.64681   1.000
    C37     C    0.09285   0.28098   0.64670   1.000
    C38     C    0.13396   0.28390   0.67277   1.000
    C39     C    0.14205   0.32149   0.65000   1.000
    C40     C    0.20797   0.24927   0.74940   1.000
    C41     C    0.21218   0.28867   0.72771   1.000
    C42     C    0.30379   0.33926   0.56556   1.000
    C43     C    0.25801   0.29346   0.70249   1.000
    C44     C    0.33112   0.29016   0.51111   1.000
    C45     C    0.27746   0.35332   0.53657   1.000
    C46     C    0.08410   0.30855   0.67227   1.000
    C47     C    0.15737   0.33907   0.59943   1.000
    C48     C    0.40729   0.47622   0.53902   1.000
    C49     C    0.34037   0.40917   0.51532   1.000
    C50     C    0.36649   0.43529   0.50073   1.000
    C51     C    0.32174   0.38695   0.42554   1.000
    C52     C    0.29999   0.43236   0.47131   1.000
    C53     C    0.17176   0.21061   0.66698   1.000
    C54     C    0.19950   0.23842   0.58290   1.000
    C55     C    0.15579   0.25374   0.70849   1.000
    C56     C    0.17998   0.24241   0.73557   1.000
    C57     C    0.16567   0.32917   0.66698   1.000
    C58     C    0.18961   0.31797   0.69394   1.000
    C59     C    0.27242   0.34107   0.61090   1.000
    C60     C    0.25665   0.32549   0.65835   1.000
    C61     C    0.31059   0.25730   0.52408   1.000
    C62     C    0.30483   0.21452   0.54690   1.000
    C63     C    0.36814   0.22928   0.55895   1.000
    C64     C    0.36260   0.18711   0.58131   1.000
    C65     C    0.28384   0.11423   0.94423   1.000
    C66     C    0.35963   0.30656   0.80348   1.000
    C67     C    0.46092   0.42240   0.56944   1.000
    C68     C    0.39955   0.36102   0.72696   1.000
    C69     C    0.41455   0.37603   0.70539   1.000
    C70     C    0.40521   0.31679   0.85054   1.000
    C71     C    0.38220   0.31227   0.83063   1.000
    C72     C    0.40641   0.31089   0.83104   1.000
    C73     C    0.43068   0.30458   0.81170   1.000
    C74     C    0.20837   0.18594   0.95726   1.000
    C75     C    0.25305   0.15936   0.96258   1.000
    C76     C    0.22795   0.18218   0.96494   1.000
    C77     C    0.22390   0.20145   0.97322   1.000
    C78     C    0.26799   0.16297   0.86389   1.000
    C79     C    0.29961   0.14404   0.88804   1.000
    C80     C    0.29240   0.15870   0.86360   1.000
    C81     C    0.26152   0.17681   0.84085   1.000
    C82     C    0.27199   0.20310   0.79230   1.000
    C83     C    0.27927   0.18675   0.81672   1.000
    C84     C    0.31016   0.16851   0.83943   1.000
    C85     C    0.30374   0.18222   0.81647   1.000
    C86     C    0.32264   0.28425   0.77212   1.000
    C87     C    0.31363   0.27520   0.76276   1.000
    C88     C    0.24194   0.32224   0.89950   1.000
    C89     C    0.27304   0.34166   0.85700   1.000
    C90     C    0.24672   0.33972   0.87369   1.000
    C91     C    0.21750   0.31889   0.91423   1.000
    C92     C    0.33257   0.07796   0.92138   1.000
    C93     C    0.19747   0.33299   0.90339   1.000
    C94     C    0.22638   0.35438   0.86331   1.000
    C95     C    0.20213   0.35111   0.87794   1.000
    C96     C    0.46103   0.42559   0.61124   1.000
    C97     C    0.36883   0.33327   0.77265   1.000
    C98     C    0.44352   0.40801   0.66370   1.000
    C99     C    0.38370   0.30637   0.81320   1.000
    C100    C    0.31969   0.36082   0.84773   1.000
    C101    C    0.25626   0.14341   0.95352   1.000
    C102    C    0.28098   0.09285   0.97946   1.000
    C103    C    0.28390   0.13396   0.90937   1.000
    C104    C    0.32149   0.14205   0.88647   1.000
    C105    C    0.24927   0.20797   0.79336   1.000
    C106    C    0.28867   0.21218   0.77143   1.000
    C107    C    0.33926   0.30379   0.79140   1.000
    C108    C    0.29346   0.25801   0.74604   1.000
    C109    C    0.29016   0.33112   0.86762   1.000
    C110    C    0.35332   0.27746   0.83264   1.000
    C111    C    0.30855   0.08410   0.93508   1.000
    C112    C    0.33907   0.15737   0.90414   1.000
    C113    C    0.47622   0.40729   0.57747   1.000
    C114    C    0.40917   0.34037   0.73515   1.000
    C115    C    0.43529   0.36649   0.69749   1.000
    C116    C    0.38695   0.32174   0.86577   1.000
    C117    C    0.43236   0.29999   0.79634   1.000
    C118    C    0.21061   0.17176   0.95064   1.000
    C119    C    0.23842   0.19950   0.97918   1.000
    C120    C    0.25374   0.15579   0.88199   1.000
    C121    C    0.24241   0.17998   0.84203   1.000
    C122    C    0.32917   0.16567   0.83819   1.000
    C123    C    0.31797   0.18961   0.79849   1.000
    C124    C    0.34107   0.27242   0.77561   1.000
    C125    C    0.32549   0.25665   0.75951   1.000
    C126    C    0.25730   0.31059   0.90802   1.000
    C127    C    0.21452   0.30483   0.93376   1.000
    C128    C    0.22928   0.36814   0.84363   1.000
    C129    C    0.18711   0.36260   0.86898   1.000
    C130    C    0.65770   0.94423   0.11423   1.000
    C131    C    0.53034   0.80348   0.30656   1.000
    C132    C    0.54723   0.56944   0.42240   1.000
    C133    C    0.51247   0.72696   0.36102   1.000
    C134    C    0.50403   0.70539   0.37603   1.000
    C135    C    0.42746   0.85054   0.31679   1.000
    C136    C    0.47489   0.83063   0.31227   1.000
    C137    C    0.45167   0.83104   0.31089   1.000
    C138    C    0.45304   0.81170   0.30458   1.000
    C139    C    0.64843   0.95726   0.18594   1.000
    C140    C    0.62501   0.96258   0.15936   1.000
    C141    C    0.62494   0.96494   0.18218   1.000
    C142    C    0.60143   0.97322   0.20145   1.000
    C143    C    0.70516   0.86389   0.16297   1.000
    C144    C    0.66831   0.88804   0.14404   1.000
    C145    C    0.68530   0.86360   0.15870   1.000
    C146    C    0.72083   0.84085   0.17681   1.000
    C147    C    0.73261   0.79230   0.20310   1.000
    C148    C    0.71726   0.81672   0.18675   1.000
    C149    C    0.68190   0.83943   0.16851   1.000
    C150    C    0.69757   0.81647   0.18222   1.000
    C151    C    0.62099   0.77212   0.28425   1.000
    C152    C    0.64841   0.76276   0.27520   1.000
    C153    C    0.53632   0.89950   0.32224   1.000
    C154    C    0.52830   0.85700   0.34166   1.000
    C155    C    0.53987   0.87369   0.33972   1.000
    C156    C    0.54938   0.91423   0.31889   1.000
    C157    C    0.66808   0.92138   0.07796   1.000
    C158    C    0.56615   0.90339   0.33299   1.000
    C159    C    0.55592   0.86331   0.35438   1.000
    C160    C    0.56881   0.87794   0.35111   1.000
    C161    C    0.50214   0.61124   0.42559   1.000
    C162    C    0.52525   0.77265   0.33327   1.000
    C163    C    0.48477   0.66370   0.40801   1.000
    C164    C    0.49673   0.81320   0.30637   1.000
    C165    C    0.47176   0.84773   0.36082   1.000
    C166    C    0.64681   0.95352   0.14341   1.000
    C167    C    0.64670   0.97946   0.09285   1.000
    C168    C    0.67277   0.90937   0.13396   1.000
    C169    C    0.65000   0.88647   0.14205   1.000
    C170    C    0.74940   0.79336   0.20797   1.000
    C171    C    0.72771   0.77143   0.21218   1.000
    C172    C    0.56556   0.79140   0.30379   1.000
    C173    C    0.70249   0.74604   0.25801   1.000
    C174    C    0.51111   0.86762   0.33112   1.000
    C175    C    0.53657   0.83264   0.27746   1.000
    C176    C    0.67227   0.93508   0.08410   1.000
    C177    C    0.59943   0.90414   0.15737   1.000
    C178    C    0.53902   0.57747   0.40729   1.000
    C179    C    0.51532   0.73515   0.34037   1.000
    C180    C    0.50073   0.69749   0.36649   1.000
    C181    C    0.42554   0.86577   0.32174   1.000
    C182    C    0.47131   0.79634   0.29999   1.000
    C183    C    0.66698   0.95064   0.17176   1.000
    C184    C    0.58290   0.97918   0.19950   1.000
    C185    C    0.70849   0.88199   0.15579   1.000
    C186    C    0.73557   0.84203   0.17998   1.000
    C187    C    0.66698   0.83819   0.16567   1.000
    C188    C    0.69394   0.79849   0.18961   1.000
    C189    C    0.61090   0.77561   0.27242   1.000
    C190    C    0.65835   0.75951   0.25665   1.000
    C191    C    0.52408   0.90802   0.31059   1.000
    C192    C    0.54690   0.93376   0.30483   1.000
    C193    C    0.55895   0.84363   0.36814   1.000
    C194    C    0.58131   0.86898   0.36260   1.000
    C195    C    0.94423   0.65770   0.28384   1.000
    C196    C    0.80348   0.53034   0.35963   1.000
    C197    C    0.56944   0.54723   0.46092   1.000
    C198    C    0.72696   0.51247   0.39955   1.000
    C199    C    0.70539   0.50403   0.41455   1.000
    C200    C    0.85054   0.42746   0.40521   1.000
    C201    C    0.83063   0.47489   0.38220   1.000
    C202    C    0.83104   0.45167   0.40641   1.000
    C203    C    0.81170   0.45304   0.43068   1.000
    C204    C    0.95726   0.64843   0.20837   1.000
    C205    C    0.96258   0.62501   0.25305   1.000
    C206    C    0.96494   0.62494   0.22795   1.000
    C207    C    0.97322   0.60143   0.22390   1.000
    C208    C    0.86389   0.70516   0.26799   1.000
    C209    C    0.88804   0.66831   0.29961   1.000
    C210    C    0.86360   0.68530   0.29240   1.000
    C211    C    0.84085   0.72083   0.26152   1.000
    C212    C    0.79230   0.73261   0.27199   1.000
    C213    C    0.81672   0.71726   0.27927   1.000
    C214    C    0.83943   0.68190   0.31016   1.000
    C215    C    0.81647   0.69757   0.30374   1.000
    C216    C    0.77212   0.62099   0.32264   1.000
    C217    C    0.76276   0.64841   0.31363   1.000
    C218    C    0.89950   0.53632   0.24194   1.000
    C219    C    0.85700   0.52830   0.27304   1.000
    C220    C    0.87369   0.53987   0.24672   1.000
    C221    C    0.91423   0.54938   0.21750   1.000
    C222    C    0.92138   0.66808   0.33257   1.000
    C223    C    0.90339   0.56615   0.19747   1.000
    C224    C    0.86331   0.55592   0.22638   1.000
    C225    C    0.87794   0.56881   0.20213   1.000
    C226    C    0.61124   0.50214   0.46103   1.000
    C227    C    0.77265   0.52525   0.36883   1.000
    C228    C    0.66370   0.48477   0.44352   1.000
    C229    C    0.81320   0.49673   0.38370   1.000
    C230    C    0.84773   0.47176   0.31969   1.000
    C231    C    0.95352   0.64681   0.25626   1.000
    C232    C    0.97946   0.64670   0.28098   1.000
    C233    C    0.90937   0.67277   0.28390   1.000
    C234    C    0.88647   0.65000   0.32149   1.000
    C235    C    0.79336   0.74940   0.24927   1.000
    C236    C    0.77143   0.72771   0.28867   1.000
    C237    C    0.79140   0.56556   0.33926   1.000
    C238    C    0.74604   0.70249   0.29346   1.000
    C239    C    0.86762   0.51111   0.29016   1.000
    C240    C    0.83264   0.53657   0.35332   1.000
    C241    C    0.93508   0.67227   0.30855   1.000
    C242    C    0.90414   0.59943   0.33907   1.000
    C243    C    0.57747   0.53902   0.47622   1.000
    C244    C    0.73515   0.51532   0.40917   1.000
    C245    C    0.69749   0.50073   0.43529   1.000
    C246    C    0.86577   0.42554   0.38695   1.000
    C247    C    0.79634   0.47131   0.43236   1.000
    C248    C    0.95064   0.66698   0.21061   1.000
    C249    C    0.97918   0.58290   0.23842   1.000
    C250    C    0.88199   0.70849   0.25374   1.000
    C251    C    0.84203   0.73557   0.24241   1.000
    C252    C    0.83819   0.66698   0.32917   1.000
    C253    C    0.79849   0.69394   0.31797   1.000
    C254    C    0.77561   0.61090   0.34107   1.000
    C255    C    0.75951   0.65835   0.32549   1.000
    C256    C    0.90802   0.52408   0.25730   1.000
    C257    C    0.93376   0.54690   0.21452   1.000
    C258    C    0.84363   0.55895   0.22928   1.000
    C259    C    0.86898   0.58131   0.18711   1.000
    C260    C    0.65770   0.11423   0.28384   1.000
    C261    C    0.53034   0.30656   0.35963   1.000
    C262    C    0.54723   0.42240   0.46092   1.000
    C263    C    0.51247   0.36102   0.39955   1.000
    C264    C    0.50403   0.37603   0.41455   1.000
    C265    C    0.42746   0.31679   0.40521   1.000
    C266    C    0.47489   0.31227   0.38220   1.000
    C267    C    0.45167   0.31089   0.40641   1.000
    C268    C    0.45304   0.30458   0.43068   1.000
    C269    C    0.64843   0.18594   0.20837   1.000
    C270    C    0.62501   0.15936   0.25305   1.000
    C271    C    0.62494   0.18218   0.22795   1.000
    C272    C    0.60143   0.20145   0.22390   1.000
    C273    C    0.70516   0.16297   0.26799   1.000
    C274    C    0.66831   0.14404   0.29961   1.000
    C275    C    0.68530   0.15870   0.29240   1.000
    C276    C    0.72083   0.17681   0.26152   1.000
    C277    C    0.73261   0.20310   0.27199   1.000
    C278    C    0.71726   0.18675   0.27927   1.000
    C279    C    0.68190   0.16851   0.31016   1.000
    C280    C    0.69757   0.18222   0.30374   1.000
    C281    C    0.62099   0.28425   0.32264   1.000
    C282    C    0.64841   0.27520   0.31363   1.000
    C283    C    0.53632   0.32224   0.24194   1.000
    C284    C    0.52830   0.34166   0.27304   1.000
    C285    C    0.53987   0.33972   0.24672   1.000
    C286    C    0.54938   0.31889   0.21750   1.000
    C287    C    0.66808   0.07796   0.33257   1.000
    C288    C    0.56615   0.33299   0.19747   1.000
    C289    C    0.55592   0.35438   0.22638   1.000
    C290    C    0.56881   0.35111   0.20213   1.000
    C291    C    0.50214   0.42559   0.46103   1.000
    C292    C    0.52525   0.33327   0.36883   1.000
    C293    C    0.48477   0.40801   0.44352   1.000
    C294    C    0.49673   0.30637   0.38370   1.000
    C295    C    0.47176   0.36082   0.31969   1.000
    C296    C    0.64681   0.14341   0.25626   1.000
    C297    C    0.64670   0.09285   0.28098   1.000
    C298    C    0.67277   0.13396   0.28390   1.000
    C299    C    0.65000   0.14205   0.32149   1.000
    C300    C    0.74940   0.20797   0.24927   1.000
    C301    C    0.72771   0.21218   0.28867   1.000
    C302    C    0.56556   0.30379   0.33926   1.000
    C303    C    0.70249   0.25801   0.29346   1.000
    C304    C    0.51111   0.33112   0.29016   1.000
    C305    C    0.53657   0.27746   0.35332   1.000
    C306    C    0.67227   0.08410   0.30855   1.000
    C307    C    0.59943   0.15737   0.33907   1.000
    C308    C    0.53902   0.40729   0.47622   1.000
    C309    C    0.51532   0.34037   0.40917   1.000
    C310    C    0.50073   0.36649   0.43529   1.000
    C311    C    0.42554   0.32174   0.38695   1.000
    C312    C    0.47131   0.29999   0.43236   1.000
    C313    C    0.66698   0.17176   0.21061   1.000
    C314    C    0.58290   0.19950   0.23842   1.000
    C315    C    0.70849   0.15579   0.25374   1.000
    C316    C    0.73557   0.17998   0.24241   1.000
    C317    C    0.66698   0.16567   0.32917   1.000
    C318    C    0.69394   0.18961   0.31797   1.000
    C319    C    0.61090   0.27242   0.34107   1.000
    C320    C    0.65835   0.25665   0.32549   1.000
    C321    C    0.52408   0.31059   0.25730   1.000
    C322    C    0.54690   0.30483   0.21452   1.000
    C323    C    0.55895   0.36814   0.22928   1.000
    C324    C    0.58131   0.36260   0.18711   1.000
    C325    C    0.94423   0.28384   0.11423   1.000
    C326    C    0.80348   0.35963   0.30656   1.000
    C327    C    0.56944   0.46092   0.42240   1.000
    C328    C    0.72696   0.39955   0.36102   1.000
    C329    C    0.70539   0.41455   0.37603   1.000
    C330    C    0.85054   0.40521   0.31679   1.000
    C331    C    0.83063   0.38220   0.31227   1.000
    C332    C    0.83104   0.40641   0.31089   1.000
    C333    C    0.81170   0.43068   0.30458   1.000
    C334    C    0.95726   0.20837   0.18594   1.000
    C335    C    0.96258   0.25305   0.15936   1.000
    C336    C    0.96494   0.22795   0.18218   1.000
    C337    C    0.97322   0.22390   0.20145   1.000
    C338    C    0.86389   0.26799   0.16297   1.000
    C339    C    0.88804   0.29961   0.14404   1.000
    C340    C    0.86360   0.29240   0.15870   1.000
    C341    C    0.84085   0.26152   0.17681   1.000
    C342    C    0.79230   0.27199   0.20310   1.000
    C343    C    0.81672   0.27927   0.18675   1.000
    C344    C    0.83943   0.31016   0.16851   1.000
    C345    C    0.81647   0.30374   0.18222   1.000
    C346    C    0.77212   0.32264   0.28425   1.000
    C347    C    0.76276   0.31363   0.27520   1.000
    C348    C    0.89950   0.24194   0.32224   1.000
    C349    C    0.85700   0.27304   0.34166   1.000
    C350    C    0.87369   0.24672   0.33972   1.000
    C351    C    0.91423   0.21750   0.31889   1.000
    C352    C    0.92138   0.33257   0.07796   1.000
    C353    C    0.90339   0.19747   0.33299   1.000
    C354    C    0.86331   0.22638   0.35438   1.000
    C355    C    0.87794   0.20213   0.35111   1.000
    C356    C    0.61124   0.46103   0.42559   1.000
    C357    C    0.77265   0.36883   0.33327   1.000
    C358    C    0.66370   0.44352   0.40801   1.000
    C359    C    0.81320   0.38370   0.30637   1.000
    C360    C    0.84773   0.31969   0.36082   1.000
    C361    C    0.95352   0.25626   0.14341   1.000
    C362    C    0.97946   0.28098   0.09285   1.000
    C363    C    0.90937   0.28390   0.13396   1.000
    C364    C    0.88647   0.32149   0.14205   1.000
    C365    C    0.79336   0.24927   0.20797   1.000
    C366    C    0.77143   0.28867   0.21218   1.000
    C367    C    0.79140   0.33926   0.30379   1.000
    C368    C    0.74604   0.29346   0.25801   1.000
    C369    C    0.86762   0.29016   0.33112   1.000
    C370    C    0.83264   0.35332   0.27746   1.000
    C371    C    0.93508   0.30855   0.08410   1.000
    C372    C    0.90414   0.33907   0.15737   1.000
    C373    C    0.57747   0.47622   0.40729   1.000
    C374    C    0.73515   0.40917   0.34037   1.000
    C375    C    0.69749   0.43529   0.36649   1.000
    C376    C    0.86577   0.38695   0.32174   1.000
    C377    C    0.79634   0.43236   0.29999   1.000
    C378    C    0.95064   0.21061   0.17176   1.000
    C379    C    0.97918   0.23842   0.19950   1.000
    C380    C    0.88199   0.25374   0.15579   1.000
    C381    C    0.84203   0.24241   0.17998   1.000
    C382    C    0.83819   0.32917   0.16567   1.000
    C383    C    0.79849   0.31797   0.18961   1.000
    C384    C    0.77561   0.34107   0.27242   1.000
    C385    C    0.75951   0.32549   0.25665   1.000
    C386    C    0.90802   0.25730   0.31059   1.000
    C387    C    0.93376   0.21452   0.30483   1.000
    C388    C    0.84363   0.22928   0.36814   1.000
    C389    C    0.86898   0.18711   0.36260   1.000
    C390    C    0.11423   0.65770   0.94423   1.000
    C391    C    0.30656   0.53034   0.80348   1.000
    C392    C    0.42240   0.54723   0.56944   1.000
    C393    C    0.36102   0.51247   0.72696   1.000
    C394    C    0.37603   0.50403   0.70539   1.000
    C395    C    0.31679   0.42746   0.85054   1.000
    C396    C    0.31227   0.47489   0.83063   1.000
    C397    C    0.31089   0.45167   0.83104   1.000
    C398    C    0.30458   0.45304   0.81170   1.000
    C399    C    0.18594   0.64843   0.95726   1.000
    C400    C    0.15936   0.62501   0.96258   1.000
    C401    C    0.18218   0.62494   0.96494   1.000
    C402    C    0.20145   0.60143   0.97322   1.000
    C403    C    0.16297   0.70516   0.86389   1.000
    C404    C    0.14404   0.66831   0.88804   1.000
    C405    C    0.15870   0.68530   0.86360   1.000
    C406    C    0.17681   0.72083   0.84085   1.000
    C407    C    0.20310   0.73261   0.79230   1.000
    C408    C    0.18675   0.71726   0.81672   1.000
    C409    C    0.16851   0.68190   0.83943   1.000
    C410    C    0.18222   0.69757   0.81647   1.000
    C411    C    0.28425   0.62099   0.77212   1.000
    C412    C    0.27520   0.64841   0.76276   1.000
    C413    C    0.32224   0.53632   0.89950   1.000
    C414    C    0.34166   0.52830   0.85700   1.000
    C415    C    0.33972   0.53987   0.87369   1.000
    C416    C    0.31889   0.54938   0.91423   1.000
    C417    C    0.07796   0.66808   0.92138   1.000
    C418    C    0.33299   0.56615   0.90339   1.000
    C419    C    0.35438   0.55592   0.86331   1.000
    C420    C    0.35111   0.56881   0.87794   1.000
    C421    C    0.42559   0.50214   0.61124   1.000
    C422    C    0.33327   0.52525   0.77265   1.000
    C423    C    0.40801   0.48477   0.66370   1.000
    C424    C    0.30637   0.49673   0.81320   1.000
    C425    C    0.36082   0.47176   0.84773   1.000
    C426    C    0.14341   0.64681   0.95352   1.000
    C427    C    0.09285   0.64670   0.97946   1.000
    C428    C    0.13396   0.67277   0.90937   1.000
    C429    C    0.14205   0.65000   0.88647   1.000
    C430    C    0.20797   0.74940   0.79336   1.000
    C431    C    0.21218   0.72771   0.77143   1.000
    C432    C    0.30379   0.56556   0.79140   1.000
    C433    C    0.25801   0.70249   0.74604   1.000
    C434    C    0.33112   0.51111   0.86762   1.000
    C435    C    0.27746   0.53657   0.83264   1.000
    C436    C    0.08410   0.67227   0.93508   1.000
    C437    C    0.15737   0.59943   0.90414   1.000
    C438    C    0.40729   0.53902   0.57747   1.000
    C439    C    0.34037   0.51532   0.73515   1.000
    C440    C    0.36649   0.50073   0.69749   1.000
    C441    C    0.32174   0.42554   0.86577   1.000
    C442    C    0.29999   0.47131   0.79634   1.000
    C443    C    0.17176   0.66698   0.95064   1.000
    C444    C    0.19950   0.58290   0.97918   1.000
    C445    C    0.15579   0.70849   0.88199   1.000
    C446    C    0.17998   0.73557   0.84203   1.000
    C447    C    0.16567   0.66698   0.83819   1.000
    C448    C    0.18961   0.69394   0.79849   1.000
    C449    C    0.27242   0.61090   0.77561   1.000
    C450    C    0.25665   0.65835   0.75951   1.000
    C451    C    0.31059   0.52408   0.90802   1.000
    C452    C    0.30483   0.54690   0.93376   1.000
    C453    C    0.36814   0.55895   0.84363   1.000
    C454    C    0.36260   0.58131   0.86898   1.000
    C455    C    0.28384   0.94423   0.65770   1.000
    C456    C    0.35963   0.80348   0.53034   1.000
    C457    C    0.46092   0.56944   0.54723   1.000
    C458    C    0.39955   0.72696   0.51247   1.000
    C459    C    0.41455   0.70539   0.50403   1.000
    C460    C    0.40521   0.85054   0.42746   1.000
    C461    C    0.38220   0.83063   0.47489   1.000
    C462    C    0.40641   0.83104   0.45167   1.000
    C463    C    0.43068   0.81170   0.45304   1.000
    C464    C    0.20837   0.95726   0.64843   1.000
    C465    C    0.25305   0.96258   0.62501   1.000
    C466    C    0.22795   0.96494   0.62494   1.000
    C467    C    0.22390   0.97322   0.60143   1.000
    C468    C    0.26799   0.86389   0.70516   1.000
    C469    C    0.29961   0.88804   0.66831   1.000
    C470    C    0.29240   0.86360   0.68530   1.000
    C471    C    0.26152   0.84085   0.72083   1.000
    C472    C    0.27199   0.79230   0.73261   1.000
    C473    C    0.27927   0.81672   0.71726   1.000
    C474    C    0.31016   0.83943   0.68190   1.000
    C475    C    0.30374   0.81647   0.69757   1.000
    C476    C    0.32264   0.77212   0.62099   1.000
    C477    C    0.31363   0.76276   0.64841   1.000
    C478    C    0.24194   0.89950   0.53632   1.000
    C479    C    0.27304   0.85700   0.52830   1.000
    C480    C    0.24672   0.87369   0.53987   1.000
    C481    C    0.21750   0.91423   0.54938   1.000
    C482    C    0.33257   0.92138   0.66808   1.000
    C483    C    0.19747   0.90339   0.56615   1.000
    C484    C    0.22638   0.86331   0.55592   1.000
    C485    C    0.20213   0.87794   0.56881   1.000
    C486    C    0.46103   0.61124   0.50214   1.000
    C487    C    0.36883   0.77265   0.52525   1.000
    C488    C    0.44352   0.66370   0.48477   1.000
    C489    C    0.38370   0.81320   0.49673   1.000
    C490    C    0.31969   0.84773   0.47176   1.000
    C491    C    0.25626   0.95352   0.64681   1.000
    C492    C    0.28098   0.97946   0.64670   1.000
    C493    C    0.28390   0.90937   0.67277   1.000
    C494    C    0.32149   0.88647   0.65000   1.000
    C495    C    0.24927   0.79336   0.74940   1.000
    C496    C    0.28867   0.77143   0.72771   1.000
    C497    C    0.33926   0.79140   0.56556   1.000
    C498    C    0.29346   0.74604   0.70249   1.000
    C499    C    0.29016   0.86762   0.51111   1.000
    C500    C    0.35332   0.83264   0.53657   1.000
    C501    C    0.30855   0.93508   0.67227   1.000
    C502    C    0.33907   0.90414   0.59943   1.000
    C503    C    0.47622   0.57747   0.53902   1.000
    C504    C    0.40917   0.73515   0.51532   1.000
    C505    C    0.43529   0.69749   0.50073   1.000
    C506    C    0.38695   0.86577   0.42554   1.000
    C507    C    0.43236   0.79634   0.47131   1.000
    C508    C    0.21061   0.95064   0.66698   1.000
    C509    C    0.23842   0.97918   0.58290   1.000
    C510    C    0.25374   0.88199   0.70849   1.000
    C511    C    0.24241   0.84203   0.73557   1.000
    C512    C    0.32917   0.83819   0.66698   1.000
    C513    C    0.31797   0.79849   0.69394   1.000
    C514    C    0.34107   0.77561   0.61090   1.000
    C515    C    0.32549   0.75951   0.65835   1.000
    C516    C    0.25730   0.90802   0.52408   1.000
    C517    C    0.21452   0.93376   0.54690   1.000
    C518    C    0.22928   0.84363   0.55895   1.000
    C519    C    0.18711   0.86898   0.58131   1.000
    C520    C    0.28384   0.65770   0.11423   1.000
    C521    C    0.35963   0.53034   0.30656   1.000
    C522    C    0.46092   0.54723   0.42240   1.000
    C523    C    0.39955   0.51247   0.36102   1.000
    C524    C    0.41455   0.50403   0.37603   1.000
    C525    C    0.40521   0.42746   0.31679   1.000
    C526    C    0.38220   0.47489   0.31227   1.000
    C527    C    0.40641   0.45167   0.31089   1.000
    C528    C    0.43068   0.45304   0.30458   1.000
    C529    C    0.20837   0.64843   0.18594   1.000
    C530    C    0.25305   0.62501   0.15936   1.000
    C531    C    0.22795   0.62494   0.18218   1.000
    C532    C    0.22390   0.60143   0.20145   1.000
    C533    C    0.26799   0.70516   0.16297   1.000
    C534    C    0.29961   0.66831   0.14404   1.000
    C535    C    0.29240   0.68530   0.15870   1.000
    C536    C    0.26152   0.72083   0.17681   1.000
    C537    C    0.27199   0.73261   0.20310   1.000
    C538    C    0.27927   0.71726   0.18675   1.000
    C539    C    0.31016   0.68190   0.16851   1.000
    C540    C    0.30374   0.69757   0.18222   1.000
    C541    C    0.32264   0.62099   0.28425   1.000
    C542    C    0.31363   0.64841   0.27520   1.000
    C543    C    0.24194   0.53632   0.32224   1.000
    C544    C    0.27304   0.52830   0.34166   1.000
    C545    C    0.24672   0.53987   0.33972   1.000
    C546    C    0.21750   0.54938   0.31889   1.000
    C547    C    0.33257   0.66808   0.07796   1.000
    C548    C    0.19747   0.56615   0.33299   1.000
    C549    C    0.22638   0.55592   0.35438   1.000
    C550    C    0.20213   0.56881   0.35111   1.000
    C551    C    0.46103   0.50214   0.42559   1.000
    C552    C    0.36883   0.52525   0.33327   1.000
    C553    C    0.44352   0.48477   0.40801   1.000
    C554    C    0.38370   0.49673   0.30637   1.000
    C555    C    0.31969   0.47176   0.36082   1.000
    C556    C    0.25626   0.64681   0.14341   1.000
    C557    C    0.28098   0.64670   0.09285   1.000
    C558    C    0.28390   0.67277   0.13396   1.000
    C559    C    0.32149   0.65000   0.14205   1.000
    C560    C    0.24927   0.74940   0.20797   1.000
    C561    C    0.28867   0.72771   0.21218   1.000
    C562    C    0.33926   0.56556   0.30379   1.000
    C563    C    0.29346   0.70249   0.25801   1.000
    C564    C    0.29016   0.51111   0.33112   1.000
    C565    C    0.35332   0.53657   0.27746   1.000
    C566    C    0.30855   0.67227   0.08410   1.000
    C567    C    0.33907   0.59943   0.15737   1.000
    C568    C    0.47622   0.53902   0.40729   1.000
    C569    C    0.40917   0.51532   0.34037   1.000
    C570    C    0.43529   0.50073   0.36649   1.000
    C571    C    0.38695   0.42554   0.32174   1.000
    C572    C    0.43236   0.47131   0.29999   1.000
    C573    C    0.21061   0.66698   0.17176   1.000
    C574    C    0.23842   0.58290   0.19950   1.000
    C575    C    0.25374   0.70849   0.15579   1.000
    C576    C    0.24241   0.73557   0.17998   1.000
    C577    C    0.32917   0.66698   0.16567   1.000
    C578    C    0.31797   0.69394   0.18961   1.000
    C579    C    0.34107   0.61090   0.27242   1.000
    C580    C    0.32549   0.65835   0.25665   1.000
    C581    C    0.25730   0.52408   0.31059   1.000
    C582    C    0.21452   0.54690   0.30483   1.000
    C583    C    0.22928   0.55895   0.36814   1.000
    C584    C    0.18711   0.58131   0.36260   1.000
    C585    C    0.11423   0.94423   0.28384   1.000
    C586    C    0.30656   0.80348   0.35963   1.000
    C587    C    0.42240   0.56944   0.46092   1.000
    C588    C    0.36102   0.72696   0.39955   1.000
    C589    C    0.37603   0.70539   0.41455   1.000
    C590    C    0.31679   0.85054   0.40521   1.000
    C591    C    0.31227   0.83063   0.38220   1.000
    C592    C    0.31089   0.83104   0.40641   1.000
    C593    C    0.30458   0.81170   0.43068   1.000
    C594    C    0.18594   0.95726   0.20837   1.000
    C595    C    0.15936   0.96258   0.25305   1.000
    C596    C    0.18218   0.96494   0.22795   1.000
    C597    C    0.20145   0.97322   0.22390   1.000
    C598    C    0.16297   0.86389   0.26799   1.000
    C599    C    0.14404   0.88804   0.29961   1.000
    C600    C    0.15870   0.86360   0.29240   1.000
    C601    C    0.17681   0.84085   0.26152   1.000
    C602    C    0.20310   0.79230   0.27199   1.000
    C603    C    0.18675   0.81672   0.27927   1.000
    C604    C    0.16851   0.83943   0.31016   1.000
    C605    C    0.18222   0.81647   0.30374   1.000
    C606    C    0.28425   0.77212   0.32264   1.000
    C607    C    0.27520   0.76276   0.31363   1.000
    C608    C    0.32224   0.89950   0.24194   1.000
    C609    C    0.34166   0.85700   0.27304   1.000
    C610    C    0.33972   0.87369   0.24672   1.000
    C611    C    0.31889   0.91423   0.21750   1.000
    C612    C    0.07796   0.92138   0.33257   1.000
    C613    C    0.33299   0.90339   0.19747   1.000
    C614    C    0.35438   0.86331   0.22638   1.000
    C615    C    0.35111   0.87794   0.20213   1.000
    C616    C    0.42559   0.61124   0.46103   1.000
    C617    C    0.33327   0.77265   0.36883   1.000
    C618    C    0.40801   0.66370   0.44352   1.000
    C619    C    0.30637   0.81320   0.38370   1.000
    C620    C    0.36082   0.84773   0.31969   1.000
    C621    C    0.14341   0.95352   0.25626   1.000
    C622    C    0.09285   0.97946   0.28098   1.000
    C623    C    0.13396   0.90937   0.28390   1.000
    C624    C    0.14205   0.88647   0.32149   1.000
    C625    C    0.20797   0.79336   0.24927   1.000
    C626    C    0.21218   0.77143   0.28867   1.000
    C627    C    0.30379   0.79140   0.33926   1.000
    C628    C    0.25801   0.74604   0.29346   1.000
    C629    C    0.33112   0.86762   0.29016   1.000
    C630    C    0.27746   0.83264   0.35332   1.000
    C631    C    0.08410   0.93508   0.30855   1.000
    C632    C    0.15737   0.90414   0.33907   1.000
    C633    C    0.40729   0.57747   0.47622   1.000
    C634    C    0.34037   0.73515   0.40917   1.000
    C635    C    0.36649   0.69749   0.43529   1.000
    C636    C    0.32174   0.86577   0.38695   1.000
    C637    C    0.29999   0.79634   0.43236   1.000
    C638    C    0.17176   0.95064   0.21061   1.000
    C639    C    0.19950   0.97918   0.23842   1.000
    C640    C    0.15579   0.88199   0.25374   1.000
    C641    C    0.17998   0.84203   0.24241   1.000
    C642    C    0.16567   0.83819   0.32917   1.000
    C643    C    0.18961   0.79849   0.31797   1.000
    C644    C    0.27242   0.77561   0.34107   1.000
    C645    C    0.25665   0.75951   0.32549   1.000
    C646    C    0.31059   0.90802   0.25730   1.000
    C647    C    0.30483   0.93376   0.21452   1.000
    C648    C    0.36814   0.84363   0.22928   1.000
    C649    C    0.36260   0.86898   0.18711   1.000
    C650    C    0.94423   0.11423   0.65770   1.000
    C651    C    0.80348   0.30656   0.53034   1.000
    C652    C    0.56944   0.42240   0.54723   1.000
    C653    C    0.72696   0.36102   0.51247   1.000
    C654    C    0.70539   0.37603   0.50403   1.000
    C655    C    0.85054   0.31679   0.42746   1.000
    C656    C    0.83063   0.31227   0.47489   1.000
    C657    C    0.83104   0.31089   0.45167   1.000
    C658    C    0.81170   0.30458   0.45304   1.000
    C659    C    0.95726   0.18594   0.64843   1.000
    C660    C    0.96258   0.15936   0.62501   1.000
    C661    C    0.96494   0.18218   0.62494   1.000
    C662    C    0.97322   0.20145   0.60143   1.000
    C663    C    0.86389   0.16297   0.70516   1.000
    C664    C    0.88804   0.14404   0.66831   1.000
    C665    C    0.86360   0.15870   0.68530   1.000
    C666    C    0.84085   0.17681   0.72083   1.000
    C667    C    0.79230   0.20310   0.73261   1.000
    C668    C    0.81672   0.18675   0.71726   1.000
    C669    C    0.83943   0.16851   0.68190   1.000
    C670    C    0.81647   0.18222   0.69757   1.000
    C671    C    0.77212   0.28425   0.62099   1.000
    C672    C    0.76276   0.27520   0.64841   1.000
    C673    C    0.89950   0.32224   0.53632   1.000
    C674    C    0.85700   0.34166   0.52830   1.000
    C675    C    0.87369   0.33972   0.53987   1.000
    C676    C    0.91423   0.31889   0.54938   1.000
    C677    C    0.92138   0.07796   0.66808   1.000
    C678    C    0.90339   0.33299   0.56615   1.000
    C679    C    0.86331   0.35438   0.55592   1.000
    C680    C    0.87794   0.35111   0.56881   1.000
    C681    C    0.61124   0.42559   0.50214   1.000
    C682    C    0.77265   0.33327   0.52525   1.000
    C683    C    0.66370   0.40801   0.48477   1.000
    C684    C    0.81320   0.30637   0.49673   1.000
    C685    C    0.84773   0.36082   0.47176   1.000
    C686    C    0.95352   0.14341   0.64681   1.000
    C687    C    0.97946   0.09285   0.64670   1.000
    C688    C    0.90937   0.13396   0.67277   1.000
    C689    C    0.88647   0.14205   0.65000   1.000
    C690    C    0.79336   0.20797   0.74940   1.000
    C691    C    0.77143   0.21218   0.72771   1.000
    C692    C    0.79140   0.30379   0.56556   1.000
    C693    C    0.74604   0.25801   0.70249   1.000
    C694    C    0.86762   0.33112   0.51111   1.000
    C695    C    0.83264   0.27746   0.53657   1.000
    C696    C    0.93508   0.08410   0.67227   1.000
    C697    C    0.90414   0.15737   0.59943   1.000
    C698    C    0.57747   0.40729   0.53902   1.000
    C699    C    0.73515   0.34037   0.51532   1.000
    C700    C    0.69749   0.36649   0.50073   1.000
    C701    C    0.86577   0.32174   0.42554   1.000
    C702    C    0.79634   0.29999   0.47131   1.000
    C703    C    0.95064   0.17176   0.66698   1.000
    C704    C    0.97918   0.19950   0.58290   1.000
    C705    C    0.88199   0.15579   0.70849   1.000
    C706    C    0.84203   0.17998   0.73557   1.000
    C707    C    0.83819   0.16567   0.66698   1.000
    C708    C    0.79849   0.18961   0.69394   1.000
    C709    C    0.77561   0.27242   0.61090   1.000
    C710    C    0.75951   0.25665   0.65835   1.000
    C711    C    0.90802   0.31059   0.52408   1.000
    C712    C    0.93376   0.30483   0.54690   1.000
    C713    C    0.84363   0.36814   0.55895   1.000
    C714    C    0.86898   0.36260   0.58131   1.000
    C715    C    0.65770   0.28384   0.94423   1.000
    C716    C    0.53034   0.35963   0.80348   1.000
    C717    C    0.54723   0.46092   0.56944   1.000
    C718    C    0.51247   0.39955   0.72696   1.000
    C719    C    0.50403   0.41455   0.70539   1.000
    C720    C    0.42746   0.40521   0.85054   1.000
    C721    C    0.47489   0.38220   0.83063   1.000
    C722    C    0.45167   0.40641   0.83104   1.000
    C723    C    0.45304   0.43068   0.81170   1.000
    C724    C    0.64843   0.20837   0.95726   1.000
    C725    C    0.62501   0.25305   0.96258   1.000
    C726    C    0.62494   0.22795   0.96494   1.000
    C727    C    0.60143   0.22390   0.97322   1.000
    C728    C    0.70516   0.26799   0.86389   1.000
    C729    C    0.66831   0.29961   0.88804   1.000
    C730    C    0.68530   0.29240   0.86360   1.000
    C731    C    0.72083   0.26152   0.84085   1.000
    C732    C    0.73261   0.27199   0.79230   1.000
    C733    C    0.71726   0.27927   0.81672   1.000
    C734    C    0.68190   0.31016   0.83943   1.000
    C735    C    0.69757   0.30374   0.81647   1.000
    C736    C    0.62099   0.32264   0.77212   1.000
    C737    C    0.64841   0.31363   0.76276   1.000
    C738    C    0.53632   0.24194   0.89950   1.000
    C739    C    0.52830   0.27304   0.85700   1.000
    C740    C    0.53987   0.24672   0.87369   1.000
    C741    C    0.54938   0.21750   0.91423   1.000
    C742    C    0.66808   0.33257   0.92138   1.000
    C743    C    0.56615   0.19747   0.90339   1.000
    C744    C    0.55592   0.22638   0.86331   1.000
    C745    C    0.56881   0.20213   0.87794   1.000
    C746    C    0.50214   0.46103   0.61124   1.000
    C747    C    0.52525   0.36883   0.77265   1.000
    C748    C    0.48477   0.44352   0.66370   1.000
    C749    C    0.49673   0.38370   0.81320   1.000
    C750    C    0.47176   0.31969   0.84773   1.000
    C751    C    0.64681   0.25626   0.95352   1.000
    C752    C    0.64670   0.28098   0.97946   1.000
    C753    C    0.67277   0.28390   0.90937   1.000
    C754    C    0.65000   0.32149   0.88647   1.000
    C755    C    0.74940   0.24927   0.79336   1.000
    C756    C    0.72771   0.28867   0.77143   1.000
    C757    C    0.56556   0.33926   0.79140   1.000
    C758    C    0.70249   0.29346   0.74604   1.000
    C759    C    0.51111   0.29016   0.86762   1.000
    C760    C    0.53657   0.35332   0.83264   1.000
    C761    C    0.67227   0.30855   0.93508   1.000
    C762    C    0.59943   0.33907   0.90414   1.000
    C763    C    0.53902   0.47622   0.57747   1.000
    C764    C    0.51532   0.40917   0.73515   1.000
    C765    C    0.50073   0.43529   0.69749   1.000
    C766    C    0.42554   0.38695   0.86577   1.000
    C767    C    0.47131   0.43236   0.79634   1.000
    C768    C    0.66698   0.21061   0.95064   1.000
    C769    C    0.58290   0.23842   0.97918   1.000
    C770    C    0.70849   0.25374   0.88199   1.000
    C771    C    0.73557   0.24241   0.84203   1.000
    C772    C    0.66698   0.32917   0.83819   1.000
    C773    C    0.69394   0.31797   0.79849   1.000
    C774    C    0.61090   0.34107   0.77561   1.000
    C775    C    0.65835   0.32549   0.75951   1.000
    C776    C    0.52408   0.25730   0.90802   1.000
    C777    C    0.54690   0.21452   0.93376   1.000
    C778    C    0.55895   0.22928   0.84363   1.000
    C779    C    0.58131   0.18711   0.86898   1.000
    C780    C    0.13577   0.96616   0.30577   1.000
    C781    C    0.94344   0.89037   0.44652   1.000
    C782    C    0.82760   0.78908   0.68056   1.000
    C783    C    0.88898   0.85045   0.52304   1.000
    C784    C    0.87397   0.83545   0.54461   1.000
    C785    C    0.93321   0.84479   0.39946   1.000
    C786    C    0.93773   0.86780   0.41937   1.000
    C787    C    0.93911   0.84359   0.41896   1.000
    C788    C    0.94542   0.81932   0.43830   1.000
    C789    C    0.06406   0.04163   0.29274   1.000
    C790    C    0.09064   0.99695   0.28742   1.000
    C791    C    0.06782   0.02205   0.28506   1.000
    C792    C    0.04855   0.02610   0.27678   1.000
    C793    C    0.08703   0.98201   0.38611   1.000
    C794    C    0.10596   0.95039   0.36196   1.000
    C795    C    0.09130   0.95760   0.38640   1.000
    C796    C    0.07319   0.98848   0.40915   1.000
    C797    C    0.04690   0.97801   0.45770   1.000
    C798    C    0.06325   0.97073   0.43328   1.000
    C799    C    0.08149   0.93984   0.41057   1.000
    C800    C    0.06778   0.94626   0.43353   1.000
    C801    C    0.96575   0.92736   0.47788   1.000
    C802    C    0.97480   0.93637   0.48724   1.000
    C803    C    0.92776   0.00806   0.35050   1.000
    C804    C    0.90834   0.97696   0.39300   1.000
    C805    C    0.91028   0.00328   0.37631   1.000
    C806    C    0.93111   0.03250   0.33577   1.000
    C807    C    0.17204   0.91743   0.32862   1.000
    C808    C    0.91701   0.05253   0.34661   1.000
    C809    C    0.89562   0.02362   0.38669   1.000
    C810    C    0.89889   0.04787   0.37206   1.000
    C811    C    0.82441   0.78897   0.63876   1.000
    C812    C    0.91673   0.88117   0.47735   1.000
    C813    C    0.84199   0.80648   0.58630   1.000
    C814    C    0.94363   0.86630   0.43680   1.000
    C815    C    0.88918   0.93031   0.40227   1.000
    C816    C    0.10659   0.99374   0.29648   1.000
    C817    C    0.15715   0.96902   0.27054   1.000
    C818    C    0.11604   0.96610   0.34063   1.000
    C819    C    0.10795   0.92851   0.36353   1.000
    C820    C    0.04203   0.00073   0.45664   1.000
    C821    C    0.03782   0.96133   0.47857   1.000
    C822    C    0.94621   0.91074   0.45860   1.000
    C823    C    0.99199   0.95654   0.50396   1.000
    C824    C    0.91888   0.95984   0.38238   1.000
    C825    C    0.97254   0.89668   0.41736   1.000
    C826    C    0.16590   0.94145   0.31492   1.000
    C827    C    0.09263   0.91093   0.34586   1.000
    C828    C    0.84271   0.77378   0.67253   1.000
    C829    C    0.90963   0.84083   0.51485   1.000
    C830    C    0.88351   0.81471   0.55251   1.000
    C831    C    0.92826   0.86305   0.38423   1.000
    C832    C    0.95001   0.81764   0.45366   1.000
    C833    C    0.07824   0.03939   0.29936   1.000
    C834    C    0.05050   0.01158   0.27082   1.000
    C835    C    0.09421   0.99626   0.36801   1.000
    C836    C    0.07002   0.00759   0.40797   1.000
    C837    C    0.08433   0.92083   0.41181   1.000
    C838    C    0.06039   0.93203   0.45151   1.000
    C839    C    0.97758   0.90893   0.47439   1.000
    C840    C    0.99335   0.92451   0.49049   1.000
    C841    C    0.93941   0.99270   0.34198   1.000
    C842    C    0.94517   0.03548   0.31624   1.000
    C843    C    0.88186   0.02072   0.40637   1.000
    C844    C    0.88740   0.06289   0.38102   1.000
    C845    C    0.96616   0.13577   0.59230   1.000
    C846    C    0.89037   0.94344   0.71966   1.000
    C847    C    0.78908   0.82760   0.70277   1.000
    C848    C    0.85045   0.88898   0.73753   1.000
    C849    C    0.83545   0.87397   0.74597   1.000
    C850    C    0.84479   0.93321   0.82254   1.000
    C851    C    0.86780   0.93773   0.77511   1.000
    C852    C    0.84359   0.93911   0.79833   1.000
    C853    C    0.81932   0.94542   0.79696   1.000
    C854    C    0.04163   0.06406   0.60157   1.000
    C855    C    0.99695   0.09064   0.62499   1.000
    C856    C    0.02205   0.06782   0.62506   1.000
    C857    C    0.02610   0.04855   0.64857   1.000
    C858    C    0.98201   0.08703   0.54484   1.000
    C859    C    0.95039   0.10596   0.58169   1.000
    C860    C    0.95760   0.09130   0.56470   1.000
    C861    C    0.98848   0.07319   0.52917   1.000
    C862    C    0.97801   0.04690   0.51739   1.000
    C863    C    0.97073   0.06325   0.53274   1.000
    C864    C    0.93984   0.08149   0.56810   1.000
    C865    C    0.94626   0.06778   0.55243   1.000
    C866    C    0.92736   0.96575   0.62901   1.000
    C867    C    0.93637   0.97480   0.60159   1.000
    C868    C    0.00806   0.92776   0.71368   1.000
    C869    C    0.97696   0.90834   0.72170   1.000
    C870    C    0.00328   0.91028   0.71013   1.000
    C871    C    0.03250   0.93111   0.70062   1.000
    C872    C    0.91743   0.17204   0.58192   1.000
    C873    C    0.05253   0.91701   0.68385   1.000
    C874    C    0.02362   0.89562   0.69408   1.000
    C875    C    0.04787   0.89889   0.68119   1.000
    C876    C    0.78897   0.82441   0.74786   1.000
    C877    C    0.88117   0.91673   0.72475   1.000
    C878    C    0.80648   0.84199   0.76523   1.000
    C879    C    0.86630   0.94363   0.75327   1.000
    C880    C    0.93031   0.88918   0.77824   1.000
    C881    C    0.99374   0.10659   0.60319   1.000
    C882    C    0.96902   0.15715   0.60330   1.000
    C883    C    0.96610   0.11604   0.57723   1.000
    C884    C    0.92851   0.10795   0.60000   1.000
    C885    C    0.00073   0.04203   0.50060   1.000
    C886    C    0.96133   0.03782   0.52229   1.000
    C887    C    0.91074   0.94621   0.68444   1.000
    C888    C    0.95654   0.99199   0.54751   1.000
    C889    C    0.95984   0.91888   0.73889   1.000
    C890    C    0.89668   0.97254   0.71343   1.000
    C891    C    0.94145   0.16590   0.57773   1.000
    C892    C    0.91093   0.09263   0.65057   1.000
    C893    C    0.77378   0.84271   0.71098   1.000
    C894    C    0.84083   0.90963   0.73468   1.000
    C895    C    0.81471   0.88351   0.74927   1.000
    C896    C    0.86305   0.92826   0.82446   1.000
    C897    C    0.81764   0.95001   0.77869   1.000
    C898    C    0.03939   0.07824   0.58302   1.000
    C899    C    0.01158   0.05050   0.66710   1.000
    C900    C    0.99626   0.09421   0.54151   1.000
    C901    C    0.00759   0.07002   0.51443   1.000
    C902    C    0.92083   0.08433   0.58302   1.000
    C903    C    0.93203   0.06039   0.55606   1.000
    C904    C    0.90893   0.97758   0.63910   1.000
    C905    C    0.92451   0.99335   0.59165   1.000
    C906    C    0.99270   0.93941   0.72592   1.000
    C907    C    0.03548   0.94517   0.70310   1.000
    C908    C    0.02072   0.88186   0.69105   1.000
    C909    C    0.06289   0.88740   0.66869   1.000
    C910    C    0.59230   0.30577   0.96616   1.000
    C911    C    0.71966   0.44652   0.89037   1.000
    C912    C    0.70277   0.68056   0.78908   1.000
    C913    C    0.73753   0.52304   0.85045   1.000
    C914    C    0.74597   0.54461   0.83545   1.000
    C915    C    0.82254   0.39946   0.84479   1.000
    C916    C    0.77511   0.41937   0.86780   1.000
    C917    C    0.79833   0.41896   0.84359   1.000
    C918    C    0.79696   0.43830   0.81932   1.000
    C919    C    0.60157   0.29274   0.04163   1.000
    C920    C    0.62499   0.28742   0.99695   1.000
    C921    C    0.62506   0.28506   0.02205   1.000
    C922    C    0.64857   0.27678   0.02610   1.000
    C923    C    0.54484   0.38611   0.98201   1.000
    C924    C    0.58169   0.36196   0.95039   1.000
    C925    C    0.56470   0.38640   0.95760   1.000
    C926    C    0.52917   0.40915   0.98848   1.000
    C927    C    0.51739   0.45770   0.97801   1.000
    C928    C    0.53274   0.43328   0.97073   1.000
    C929    C    0.56810   0.41057   0.93984   1.000
    C930    C    0.55243   0.43353   0.94626   1.000
    C931    C    0.62901   0.47788   0.92736   1.000
    C932    C    0.60159   0.48724   0.93637   1.000
    C933    C    0.71368   0.35050   0.00806   1.000
    C934    C    0.72170   0.39300   0.97696   1.000
    C935    C    0.71013   0.37631   0.00328   1.000
    C936    C    0.70062   0.33577   0.03250   1.000
    C937    C    0.58192   0.32862   0.91743   1.000
    C938    C    0.68385   0.34661   0.05253   1.000
    C939    C    0.69408   0.38669   0.02362   1.000
    C940    C    0.68119   0.37206   0.04787   1.000
    C941    C    0.74786   0.63876   0.78897   1.000
    C942    C    0.72475   0.47735   0.88117   1.000
    C943    C    0.76523   0.58630   0.80648   1.000
    C944    C    0.75327   0.43680   0.86630   1.000
    C945    C    0.77824   0.40227   0.93031   1.000
    C946    C    0.60319   0.29648   0.99374   1.000
    C947    C    0.60330   0.27054   0.96902   1.000
    C948    C    0.57723   0.34063   0.96610   1.000
    C949    C    0.60000   0.36353   0.92851   1.000
    C950    C    0.50060   0.45664   0.00073   1.000
    C951    C    0.52229   0.47857   0.96133   1.000
    C952    C    0.68444   0.45860   0.91074   1.000
    C953    C    0.54751   0.50396   0.95654   1.000
    C954    C    0.73889   0.38238   0.95984   1.000
    C955    C    0.71343   0.41736   0.89668   1.000
    C956    C    0.57773   0.31492   0.94145   1.000
    C957    C    0.65057   0.34586   0.91093   1.000
    C958    C    0.71098   0.67253   0.77378   1.000
    C959    C    0.73468   0.51485   0.84083   1.000
    C960    C    0.74927   0.55251   0.81471   1.000
    C961    C    0.82446   0.38423   0.86305   1.000
    C962    C    0.77869   0.45366   0.81764   1.000
    C963    C    0.58302   0.29936   0.03939   1.000
    C964    C    0.66710   0.27082   0.01158   1.000
    C965    C    0.54151   0.36801   0.99626   1.000
    C966    C    0.51443   0.40797   0.00759   1.000
    C967    C    0.58302   0.41181   0.92083   1.000
    C968    C    0.55606   0.45151   0.93203   1.000
    C969    C    0.63910   0.47439   0.90893   1.000
    C970    C    0.59165   0.49049   0.92451   1.000
    C971    C    0.72592   0.34198   0.99270   1.000
    C972    C    0.70310   0.31624   0.03548   1.000
    C973    C    0.69105   0.40637   0.02072   1.000
    C974    C    0.66869   0.38102   0.06289   1.000
    C975    C    0.30577   0.59230   0.13577   1.000
    C976    C    0.44652   0.71966   0.94344   1.000
    C977    C    0.68056   0.70277   0.82760   1.000
    C978    C    0.52304   0.73753   0.88898   1.000
    C979    C    0.54461   0.74597   0.87397   1.000
    C980    C    0.39946   0.82254   0.93321   1.000
    C981    C    0.41937   0.77511   0.93773   1.000
    C982    C    0.41896   0.79833   0.93911   1.000
    C983    C    0.43830   0.79696   0.94542   1.000
    C984    C    0.29274   0.60157   0.06406   1.000
    C985    C    0.28742   0.62499   0.09064   1.000
    C986    C    0.28506   0.62506   0.06782   1.000
    C987    C    0.27678   0.64857   0.04855   1.000
    C988    C    0.38611   0.54484   0.08703   1.000
    C989    C    0.36196   0.58169   0.10596   1.000
    C990    C    0.38640   0.56470   0.09130   1.000
    C991    C    0.40915   0.52917   0.07319   1.000
    C992    C    0.45770   0.51739   0.04690   1.000
    C993    C    0.43328   0.53274   0.06325   1.000
    C994    C    0.41057   0.56810   0.08149   1.000
    C995    C    0.43353   0.55243   0.06778   1.000
    C996    C    0.47788   0.62901   0.96575   1.000
    C997    C    0.48724   0.60159   0.97480   1.000
    C998    C    0.35050   0.71368   0.92776   1.000
    C999    C    0.39300   0.72170   0.90834   1.000
    C1000   C    0.37631   0.71013   0.91028   1.000
    C1001   C    0.33577   0.70062   0.93111   1.000
    C1002   C    0.32862   0.58192   0.17204   1.000
    C1003   C    0.34661   0.68385   0.91701   1.000
    C1004   C    0.38669   0.69408   0.89562   1.000
    C1005   C    0.37206   0.68119   0.89889   1.000
    C1006   C    0.63876   0.74786   0.82441   1.000
    C1007   C    0.47735   0.72475   0.91673   1.000
    C1008   C    0.58630   0.76523   0.84199   1.000
    C1009   C    0.43680   0.75327   0.94363   1.000
    C1010   C    0.40227   0.77824   0.88918   1.000
    C1011   C    0.29648   0.60319   0.10659   1.000
    C1012   C    0.27054   0.60330   0.15715   1.000
    C1013   C    0.34063   0.57723   0.11604   1.000
    C1014   C    0.36353   0.60000   0.10795   1.000
    C1015   C    0.45664   0.50060   0.04203   1.000
    C1016   C    0.47857   0.52229   0.03782   1.000
    C1017   C    0.45860   0.68444   0.94621   1.000
    C1018   C    0.50396   0.54751   0.99199   1.000
    C1019   C    0.38238   0.73889   0.91888   1.000
    C1020   C    0.41736   0.71343   0.97254   1.000
    C1021   C    0.31492   0.57773   0.16590   1.000
    C1022   C    0.34586   0.65057   0.09263   1.000
    C1023   C    0.67253   0.71098   0.84271   1.000
    C1024   C    0.51485   0.73468   0.90963   1.000
    C1025   C    0.55251   0.74927   0.88351   1.000
    C1026   C    0.38423   0.82446   0.92826   1.000
    C1027   C    0.45366   0.77869   0.95001   1.000
    C1028   C    0.29936   0.58302   0.07824   1.000
    C1029   C    0.27082   0.66710   0.05050   1.000
    C1030   C    0.36801   0.54151   0.09421   1.000
    C1031   C    0.40797   0.51443   0.07002   1.000
    C1032   C    0.41181   0.58302   0.08433   1.000
    C1033   C    0.45151   0.55606   0.06039   1.000
    C1034   C    0.47439   0.63910   0.97758   1.000
    C1035   C    0.49049   0.59165   0.99335   1.000
    C1036   C    0.34198   0.72592   0.93941   1.000
    C1037   C    0.31624   0.70310   0.94517   1.000
    C1038   C    0.40637   0.69105   0.88186   1.000
    C1039   C    0.38102   0.66869   0.88740   1.000
    C1040   C    0.59230   0.13577   0.30577   1.000
    C1041   C    0.71966   0.94344   0.44652   1.000
    C1042   C    0.70277   0.82760   0.68056   1.000
    C1043   C    0.73753   0.88898   0.52304   1.000
    C1044   C    0.74597   0.87397   0.54461   1.000
    C1045   C    0.82254   0.93321   0.39946   1.000
    C1046   C    0.77511   0.93773   0.41937   1.000
    C1047   C    0.79833   0.93911   0.41896   1.000
    C1048   C    0.79696   0.94542   0.43830   1.000
    C1049   C    0.60157   0.06406   0.29274   1.000
    C1050   C    0.62499   0.09064   0.28742   1.000
    C1051   C    0.62506   0.06782   0.28506   1.000
    C1052   C    0.64857   0.04855   0.27678   1.000
    C1053   C    0.54484   0.08703   0.38611   1.000
    C1054   C    0.58169   0.10596   0.36196   1.000
    C1055   C    0.56470   0.09130   0.38640   1.000
    C1056   C    0.52917   0.07319   0.40915   1.000
    C1057   C    0.51739   0.04690   0.45770   1.000
    C1058   C    0.53274   0.06325   0.43328   1.000
    C1059   C    0.56810   0.08149   0.41057   1.000
    C1060   C    0.55243   0.06778   0.43353   1.000
    C1061   C    0.62901   0.96575   0.47788   1.000
    C1062   C    0.60159   0.97480   0.48724   1.000
    C1063   C    0.71368   0.92776   0.35050   1.000
    C1064   C    0.72170   0.90834   0.39300   1.000
    C1065   C    0.71013   0.91028   0.37631   1.000
    C1066   C    0.70062   0.93111   0.33577   1.000
    C1067   C    0.58192   0.17204   0.32862   1.000
    C1068   C    0.68385   0.91701   0.34661   1.000
    C1069   C    0.69408   0.89562   0.38669   1.000
    C1070   C    0.68119   0.89889   0.37206   1.000
    C1071   C    0.74786   0.82441   0.63876   1.000
    C1072   C    0.72475   0.91673   0.47735   1.000
    C1073   C    0.76523   0.84199   0.58630   1.000
    C1074   C    0.75327   0.94363   0.43680   1.000
    C1075   C    0.77824   0.88918   0.40227   1.000
    C1076   C    0.60319   0.10659   0.29648   1.000
    C1077   C    0.60330   0.15715   0.27054   1.000
    C1078   C    0.57723   0.11604   0.34063   1.000
    C1079   C    0.60000   0.10795   0.36353   1.000
    C1080   C    0.50060   0.04203   0.45664   1.000
    C1081   C    0.52229   0.03782   0.47857   1.000
    C1082   C    0.68444   0.94621   0.45860   1.000
    C1083   C    0.54751   0.99199   0.50396   1.000
    C1084   C    0.73889   0.91888   0.38238   1.000
    C1085   C    0.71343   0.97254   0.41736   1.000
    C1086   C    0.57773   0.16590   0.31492   1.000
    C1087   C    0.65057   0.09263   0.34586   1.000
    C1088   C    0.71098   0.84271   0.67253   1.000
    C1089   C    0.73468   0.90963   0.51485   1.000
    C1090   C    0.74927   0.88351   0.55251   1.000
    C1091   C    0.82446   0.92826   0.38423   1.000
    C1092   C    0.77869   0.95001   0.45366   1.000
    C1093   C    0.58302   0.07824   0.29936   1.000
    C1094   C    0.66710   0.05050   0.27082   1.000
    C1095   C    0.54151   0.09421   0.36801   1.000
    C1096   C    0.51443   0.07002   0.40797   1.000
    C1097   C    0.58302   0.08433   0.41181   1.000
    C1098   C    0.55606   0.06039   0.45151   1.000
    C1099   C    0.63910   0.97758   0.47439   1.000
    C1100   C    0.59165   0.99335   0.49049   1.000
    C1101   C    0.72592   0.93941   0.34198   1.000
    C1102   C    0.70310   0.94517   0.31624   1.000
    C1103   C    0.69105   0.88186   0.40637   1.000
    C1104   C    0.66869   0.88740   0.38102   1.000
    C1105   C    0.30577   0.96616   0.59230   1.000
    C1106   C    0.44652   0.89037   0.71966   1.000
    C1107   C    0.68056   0.78908   0.70277   1.000
    C1108   C    0.52304   0.85045   0.73753   1.000
    C1109   C    0.54461   0.83545   0.74597   1.000
    C1110   C    0.39946   0.84479   0.82254   1.000
    C1111   C    0.41937   0.86780   0.77511   1.000
    C1112   C    0.41896   0.84359   0.79833   1.000
    C1113   C    0.43830   0.81932   0.79696   1.000
    C1114   C    0.29274   0.04163   0.60157   1.000
    C1115   C    0.28742   0.99695   0.62499   1.000
    C1116   C    0.28506   0.02205   0.62506   1.000
    C1117   C    0.27678   0.02610   0.64857   1.000
    C1118   C    0.38611   0.98201   0.54484   1.000
    C1119   C    0.36196   0.95039   0.58169   1.000
    C1120   C    0.38640   0.95760   0.56470   1.000
    C1121   C    0.40915   0.98848   0.52917   1.000
    C1122   C    0.45770   0.97801   0.51739   1.000
    C1123   C    0.43328   0.97073   0.53274   1.000
    C1124   C    0.41057   0.93984   0.56810   1.000
    C1125   C    0.43353   0.94626   0.55243   1.000
    C1126   C    0.47788   0.92736   0.62901   1.000
    C1127   C    0.48724   0.93637   0.60159   1.000
    C1128   C    0.35050   0.00806   0.71368   1.000
    C1129   C    0.39300   0.97696   0.72170   1.000
    C1130   C    0.37631   0.00328   0.71013   1.000
    C1131   C    0.33577   0.03250   0.70062   1.000
    C1132   C    0.32862   0.91743   0.58192   1.000
    C1133   C    0.34661   0.05253   0.68385   1.000
    C1134   C    0.38669   0.02362   0.69408   1.000
    C1135   C    0.37206   0.04787   0.68119   1.000
    C1136   C    0.63876   0.78897   0.74786   1.000
    C1137   C    0.47735   0.88117   0.72475   1.000
    C1138   C    0.58630   0.80648   0.76523   1.000
    C1139   C    0.43680   0.86630   0.75327   1.000
    C1140   C    0.40227   0.93031   0.77824   1.000
    C1141   C    0.29648   0.99374   0.60319   1.000
    C1142   C    0.27054   0.96902   0.60330   1.000
    C1143   C    0.34063   0.96610   0.57723   1.000
    C1144   C    0.36353   0.92851   0.60000   1.000
    C1145   C    0.45664   0.00073   0.50060   1.000
    C1146   C    0.47857   0.96133   0.52229   1.000
    C1147   C    0.45860   0.91074   0.68444   1.000
    C1148   C    0.50396   0.95654   0.54751   1.000
    C1149   C    0.38238   0.95984   0.73889   1.000
    C1150   C    0.41736   0.89668   0.71343   1.000
    C1151   C    0.31492   0.94145   0.57773   1.000
    C1152   C    0.34586   0.91093   0.65057   1.000
    C1153   C    0.67253   0.77378   0.71098   1.000
    C1154   C    0.51485   0.84083   0.73468   1.000
    C1155   C    0.55251   0.81471   0.74927   1.000
    C1156   C    0.38423   0.86305   0.82446   1.000
    C1157   C    0.45366   0.81764   0.77869   1.000
    C1158   C    0.29936   0.03939   0.58302   1.000
    C1159   C    0.27082   0.01158   0.66710   1.000
    C1160   C    0.36801   0.99626   0.54151   1.000
    C1161   C    0.40797   0.00759   0.51443   1.000
    C1162   C    0.41181   0.92083   0.58302   1.000
    C1163   C    0.45151   0.93203   0.55606   1.000
    C1164   C    0.47439   0.90893   0.63910   1.000
    C1165   C    0.49049   0.92451   0.59165   1.000
    C1166   C    0.34198   0.99270   0.72592   1.000
    C1167   C    0.31624   0.03548   0.70310   1.000
    C1168   C    0.40637   0.02072   0.69105   1.000
    C1169   C    0.38102   0.06289   0.66869   1.000
    C1170   C    0.13577   0.59230   0.96616   1.000
    C1171   C    0.94344   0.71966   0.89037   1.000
    C1172   C    0.82760   0.70277   0.78908   1.000
    C1173   C    0.88898   0.73753   0.85045   1.000
    C1174   C    0.87397   0.74597   0.83545   1.000
    C1175   C    0.93321   0.82254   0.84479   1.000
    C1176   C    0.93773   0.77511   0.86780   1.000
    C1177   C    0.93911   0.79833   0.84359   1.000
    C1178   C    0.94542   0.79696   0.81932   1.000
    C1179   C    0.06406   0.60157   0.04163   1.000
    C1180   C    0.09064   0.62499   0.99695   1.000
    C1181   C    0.06782   0.62506   0.02205   1.000
    C1182   C    0.04855   0.64857   0.02610   1.000
    C1183   C    0.08703   0.54484   0.98201   1.000
    C1184   C    0.10596   0.58169   0.95039   1.000
    C1185   C    0.09130   0.56470   0.95760   1.000
    C1186   C    0.07319   0.52917   0.98848   1.000
    C1187   C    0.04690   0.51739   0.97801   1.000
    C1188   C    0.06325   0.53274   0.97073   1.000
    C1189   C    0.08149   0.56810   0.93984   1.000
    C1190   C    0.06778   0.55243   0.94626   1.000
    C1191   C    0.96575   0.62901   0.92736   1.000
    C1192   C    0.97480   0.60159   0.93637   1.000
    C1193   C    0.92776   0.71368   0.00806   1.000
    C1194   C    0.90834   0.72170   0.97696   1.000
    C1195   C    0.91028   0.71013   0.00328   1.000
    C1196   C    0.93111   0.70062   0.03250   1.000
    C1197   C    0.17204   0.58192   0.91743   1.000
    C1198   C    0.91701   0.68385   0.05253   1.000
    C1199   C    0.89562   0.69408   0.02362   1.000
    C1200   C    0.89889   0.68119   0.04787   1.000
    C1201   C    0.82441   0.74786   0.78897   1.000
    C1202   C    0.91673   0.72475   0.88117   1.000
    C1203   C    0.84199   0.76523   0.80648   1.000
    C1204   C    0.94363   0.75327   0.86630   1.000
    C1205   C    0.88918   0.77824   0.93031   1.000
    C1206   C    0.10659   0.60319   0.99374   1.000
    C1207   C    0.15715   0.60330   0.96902   1.000
    C1208   C    0.11604   0.57723   0.96610   1.000
    C1209   C    0.10795   0.60000   0.92851   1.000
    C1210   C    0.04203   0.50060   0.00073   1.000
    C1211   C    0.03782   0.52229   0.96133   1.000
    C1212   C    0.94621   0.68444   0.91074   1.000
    C1213   C    0.99199   0.54751   0.95654   1.000
    C1214   C    0.91888   0.73889   0.95984   1.000
    C1215   C    0.97254   0.71343   0.89668   1.000
    C1216   C    0.16590   0.57773   0.94145   1.000
    C1217   C    0.09263   0.65057   0.91093   1.000
    C1218   C    0.84271   0.71098   0.77378   1.000
    C1219   C    0.90963   0.73468   0.84083   1.000
    C1220   C    0.88351   0.74927   0.81471   1.000
    C1221   C    0.92826   0.82446   0.86305   1.000
    C1222   C    0.95001   0.77869   0.81764   1.000
    C1223   C    0.07824   0.58302   0.03939   1.000
    C1224   C    0.05050   0.66710   0.01158   1.000
    C1225   C    0.09421   0.54151   0.99626   1.000
    C1226   C    0.07002   0.51443   0.00759   1.000
    C1227   C    0.08433   0.58302   0.92083   1.000
    C1228   C    0.06039   0.55606   0.93203   1.000
    C1229   C    0.97758   0.63910   0.90893   1.000
    C1230   C    0.99335   0.59165   0.92451   1.000
    C1231   C    0.93941   0.72592   0.99270   1.000
    C1232   C    0.94517   0.70310   0.03548   1.000
    C1233   C    0.88186   0.69105   0.02072   1.000
    C1234   C    0.88740   0.66869   0.06289   1.000
    C1235   C    0.96616   0.30577   0.13577   1.000
    C1236   C    0.89037   0.44652   0.94344   1.000
    C1237   C    0.78908   0.68056   0.82760   1.000
    C1238   C    0.85045   0.52304   0.88898   1.000
    C1239   C    0.83545   0.54461   0.87397   1.000
    C1240   C    0.84479   0.39946   0.93321   1.000
    C1241   C    0.86780   0.41937   0.93773   1.000
    C1242   C    0.84359   0.41896   0.93911   1.000
    C1243   C    0.81932   0.43830   0.94542   1.000
    C1244   C    0.04163   0.29274   0.06406   1.000
    C1245   C    0.99695   0.28742   0.09064   1.000
    C1246   C    0.02205   0.28506   0.06782   1.000
    C1247   C    0.02610   0.27678   0.04855   1.000
    C1248   C    0.98201   0.38611   0.08703   1.000
    C1249   C    0.95039   0.36196   0.10596   1.000
    C1250   C    0.95760   0.38640   0.09130   1.000
    C1251   C    0.98848   0.40915   0.07319   1.000
    C1252   C    0.97801   0.45770   0.04690   1.000
    C1253   C    0.97073   0.43328   0.06325   1.000
    C1254   C    0.93984   0.41057   0.08149   1.000
    C1255   C    0.94626   0.43353   0.06778   1.000
    C1256   C    0.92736   0.47788   0.96575   1.000
    C1257   C    0.93637   0.48724   0.97480   1.000
    C1258   C    0.00806   0.35050   0.92776   1.000
    C1259   C    0.97696   0.39300   0.90834   1.000
    C1260   C    0.00328   0.37631   0.91028   1.000
    C1261   C    0.03250   0.33577   0.93111   1.000
    C1262   C    0.91743   0.32862   0.17204   1.000
    C1263   C    0.05253   0.34661   0.91701   1.000
    C1264   C    0.02362   0.38669   0.89562   1.000
    C1265   C    0.04787   0.37206   0.89889   1.000
    C1266   C    0.78897   0.63876   0.82441   1.000
    C1267   C    0.88117   0.47735   0.91673   1.000
    C1268   C    0.80648   0.58630   0.84199   1.000
    C1269   C    0.86630   0.43680   0.94363   1.000
    C1270   C    0.93031   0.40227   0.88918   1.000
    C1271   C    0.99374   0.29648   0.10659   1.000
    C1272   C    0.96902   0.27054   0.15715   1.000
    C1273   C    0.96610   0.34063   0.11604   1.000
    C1274   C    0.92851   0.36353   0.10795   1.000
    C1275   C    0.00073   0.45664   0.04203   1.000
    C1276   C    0.96133   0.47857   0.03782   1.000
    C1277   C    0.91074   0.45860   0.94621   1.000
    C1278   C    0.95654   0.50396   0.99199   1.000
    C1279   C    0.95984   0.38238   0.91888   1.000
    C1280   C    0.89668   0.41736   0.97254   1.000
    C1281   C    0.94145   0.31492   0.16590   1.000
    C1282   C    0.91093   0.34586   0.09263   1.000
    C1283   C    0.77378   0.67253   0.84271   1.000
    C1284   C    0.84083   0.51485   0.90963   1.000
    C1285   C    0.81471   0.55251   0.88351   1.000
    C1286   C    0.86305   0.38423   0.92826   1.000
    C1287   C    0.81764   0.45366   0.95001   1.000
    C1288   C    0.03939   0.29936   0.07824   1.000
    C1289   C    0.01158   0.27082   0.05050   1.000
    C1290   C    0.99626   0.36801   0.09421   1.000
    C1291   C    0.00759   0.40797   0.07002   1.000
    C1292   C    0.92083   0.41181   0.08433   1.000
    C1293   C    0.93203   0.45151   0.06039   1.000
    C1294   C    0.90893   0.47439   0.97758   1.000
    C1295   C    0.92451   0.49049   0.99335   1.000
    C1296   C    0.99270   0.34198   0.93941   1.000
    C1297   C    0.03548   0.31624   0.94517   1.000
    C1298   C    0.02072   0.40637   0.88186   1.000
    C1299   C    0.06289   0.38102   0.88740   1.000
    C1300   C    0.96616   0.59230   0.30577   1.000
    C1301   C    0.89037   0.71966   0.44652   1.000
    C1302   C    0.78908   0.70277   0.68056   1.000
    C1303   C    0.85045   0.73753   0.52304   1.000
    C1304   C    0.83545   0.74597   0.54461   1.000
    C1305   C    0.84479   0.82254   0.39946   1.000
    C1306   C    0.86780   0.77511   0.41937   1.000
    C1307   C    0.84359   0.79833   0.41896   1.000
    C1308   C    0.81932   0.79696   0.43830   1.000
    C1309   C    0.04163   0.60157   0.29274   1.000
    C1310   C    0.99695   0.62499   0.28742   1.000
    C1311   C    0.02205   0.62506   0.28506   1.000
    C1312   C    0.02610   0.64857   0.27678   1.000
    C1313   C    0.98201   0.54484   0.38611   1.000
    C1314   C    0.95039   0.58169   0.36196   1.000
    C1315   C    0.95760   0.56470   0.38640   1.000
    C1316   C    0.98848   0.52917   0.40915   1.000
    C1317   C    0.97801   0.51739   0.45770   1.000
    C1318   C    0.97073   0.53274   0.43328   1.000
    C1319   C    0.93984   0.56810   0.41057   1.000
    C1320   C    0.94626   0.55243   0.43353   1.000
    C1321   C    0.92736   0.62901   0.47788   1.000
    C1322   C    0.93637   0.60159   0.48724   1.000
    C1323   C    0.00806   0.71368   0.35050   1.000
    C1324   C    0.97696   0.72170   0.39300   1.000
    C1325   C    0.00328   0.71013   0.37631   1.000
    C1326   C    0.03250   0.70062   0.33577   1.000
    C1327   C    0.91743   0.58192   0.32862   1.000
    C1328   C    0.05253   0.68385   0.34661   1.000
    C1329   C    0.02362   0.69408   0.38669   1.000
    C1330   C    0.04787   0.68119   0.37206   1.000
    C1331   C    0.78897   0.74786   0.63876   1.000
    C1332   C    0.88117   0.72475   0.47735   1.000
    C1333   C    0.80648   0.76523   0.58630   1.000
    C1334   C    0.86630   0.75327   0.43680   1.000
    C1335   C    0.93031   0.77824   0.40227   1.000
    C1336   C    0.99374   0.60319   0.29648   1.000
    C1337   C    0.96902   0.60330   0.27054   1.000
    C1338   C    0.96610   0.57723   0.34063   1.000
    C1339   C    0.92851   0.60000   0.36353   1.000
    C1340   C    0.00073   0.50060   0.45664   1.000
    C1341   C    0.96133   0.52229   0.47857   1.000
    C1342   C    0.91074   0.68444   0.45860   1.000
    C1343   C    0.95654   0.54751   0.50396   1.000
    C1344   C    0.95984   0.73889   0.38238   1.000
    C1345   C    0.89668   0.71343   0.41736   1.000
    C1346   C    0.94145   0.57773   0.31492   1.000
    C1347   C    0.91093   0.65057   0.34586   1.000
    C1348   C    0.77378   0.71098   0.67253   1.000
    C1349   C    0.84083   0.73468   0.51485   1.000
    C1350   C    0.81471   0.74927   0.55251   1.000
    C1351   C    0.86305   0.82446   0.38423   1.000
    C1352   C    0.81764   0.77869   0.45366   1.000
    C1353   C    0.03939   0.58302   0.29936   1.000
    C1354   C    0.01158   0.66710   0.27082   1.000
    C1355   C    0.99626   0.54151   0.36801   1.000
    C1356   C    0.00759   0.51443   0.40797   1.000
    C1357   C    0.92083   0.58302   0.41181   1.000
    C1358   C    0.93203   0.55606   0.45151   1.000
    C1359   C    0.90893   0.63910   0.47439   1.000
    C1360   C    0.92451   0.59165   0.49049   1.000
    C1361   C    0.99270   0.72592   0.34198   1.000
    C1362   C    0.03548   0.70310   0.31624   1.000
    C1363   C    0.02072   0.69105   0.40637   1.000
    C1364   C    0.06289   0.66869   0.38102   1.000
    C1365   C    0.13577   0.30577   0.59230   1.000
    C1366   C    0.94344   0.44652   0.71966   1.000
    C1367   C    0.82760   0.68056   0.70277   1.000
    C1368   C    0.88898   0.52304   0.73753   1.000
    C1369   C    0.87397   0.54461   0.74597   1.000
    C1370   C    0.93321   0.39946   0.82254   1.000
    C1371   C    0.93773   0.41937   0.77511   1.000
    C1372   C    0.93911   0.41896   0.79833   1.000
    C1373   C    0.94542   0.43830   0.79696   1.000
    C1374   C    0.06406   0.29274   0.60157   1.000
    C1375   C    0.09064   0.28742   0.62499   1.000
    C1376   C    0.06782   0.28506   0.62506   1.000
    C1377   C    0.04855   0.27678   0.64857   1.000
    C1378   C    0.08703   0.38611   0.54484   1.000
    C1379   C    0.10596   0.36196   0.58169   1.000
    C1380   C    0.09130   0.38640   0.56470   1.000
    C1381   C    0.07319   0.40915   0.52917   1.000
    C1382   C    0.04690   0.45770   0.51739   1.000
    C1383   C    0.06325   0.43328   0.53274   1.000
    C1384   C    0.08149   0.41057   0.56810   1.000
    C1385   C    0.06778   0.43353   0.55243   1.000
    C1386   C    0.96575   0.47788   0.62901   1.000
    C1387   C    0.97480   0.48724   0.60159   1.000
    C1388   C    0.92776   0.35050   0.71368   1.000
    C1389   C    0.90834   0.39300   0.72170   1.000
    C1390   C    0.91028   0.37631   0.71013   1.000
    C1391   C    0.93111   0.33577   0.70062   1.000
    C1392   C    0.17204   0.32862   0.58192   1.000
    C1393   C    0.91701   0.34661   0.68385   1.000
    C1394   C    0.89562   0.38669   0.69408   1.000
    C1395   C    0.89889   0.37206   0.68119   1.000
    C1396   C    0.82441   0.63876   0.74786   1.000
    C1397   C    0.91673   0.47735   0.72475   1.000
    C1398   C    0.84199   0.58630   0.76523   1.000
    C1399   C    0.94363   0.43680   0.75327   1.000
    C1400   C    0.88918   0.40227   0.77824   1.000
    C1401   C    0.10659   0.29648   0.60319   1.000
    C1402   C    0.15715   0.27054   0.60330   1.000
    C1403   C    0.11604   0.34063   0.57723   1.000
    C1404   C    0.10795   0.36353   0.60000   1.000
    C1405   C    0.04203   0.45664   0.50060   1.000
    C1406   C    0.03782   0.47857   0.52229   1.000
    C1407   C    0.94621   0.45860   0.68444   1.000
    C1408   C    0.99199   0.50396   0.54751   1.000
    C1409   C    0.91888   0.38238   0.73889   1.000
    C1410   C    0.97254   0.41736   0.71343   1.000
    C1411   C    0.16590   0.31492   0.57773   1.000
    C1412   C    0.09263   0.34586   0.65057   1.000
    C1413   C    0.84271   0.67253   0.71098   1.000
    C1414   C    0.90963   0.51485   0.73468   1.000
    C1415   C    0.88351   0.55251   0.74927   1.000
    C1416   C    0.92826   0.38423   0.82446   1.000
    C1417   C    0.95001   0.45366   0.77869   1.000
    C1418   C    0.07824   0.29936   0.58302   1.000
    C1419   C    0.05050   0.27082   0.66710   1.000
    C1420   C    0.09421   0.36801   0.54151   1.000
    C1421   C    0.07002   0.40797   0.51443   1.000
    C1422   C    0.08433   0.41181   0.58302   1.000
    C1423   C    0.06039   0.45151   0.55606   1.000
    C1424   C    0.97758   0.47439   0.63910   1.000
    C1425   C    0.99335   0.49049   0.59165   1.000
    C1426   C    0.93941   0.34198   0.72592   1.000
    C1427   C    0.94517   0.31624   0.70310   1.000
    C1428   C    0.88186   0.40637   0.69105   1.000
    C1429   C    0.88740   0.38102   0.66869   1.000
    C1430   C    0.30577   0.13577   0.96616   1.000
    C1431   C    0.44652   0.94344   0.89037   1.000
    C1432   C    0.68056   0.82760   0.78908   1.000
    C1433   C    0.52304   0.88898   0.85045   1.000
    C1434   C    0.54461   0.87397   0.83545   1.000
    C1435   C    0.39946   0.93321   0.84479   1.000
    C1436   C    0.41937   0.93773   0.86780   1.000
    C1437   C    0.41896   0.93911   0.84359   1.000
    C1438   C    0.43830   0.94542   0.81932   1.000
    C1439   C    0.29274   0.06406   0.04163   1.000
    C1440   C    0.28742   0.09064   0.99695   1.000
    C1441   C    0.28506   0.06782   0.02205   1.000
    C1442   C    0.27678   0.04855   0.02610   1.000
    C1443   C    0.38611   0.08703   0.98201   1.000
    C1444   C    0.36196   0.10596   0.95039   1.000
    C1445   C    0.38640   0.09130   0.95760   1.000
    C1446   C    0.40915   0.07319   0.98848   1.000
    C1447   C    0.45770   0.04690   0.97801   1.000
    C1448   C    0.43328   0.06325   0.97073   1.000
    C1449   C    0.41057   0.08149   0.93984   1.000
    C1450   C    0.43353   0.06778   0.94626   1.000
    C1451   C    0.47788   0.96575   0.92736   1.000
    C1452   C    0.48724   0.97480   0.93637   1.000
    C1453   C    0.35050   0.92776   0.00806   1.000
    C1454   C    0.39300   0.90834   0.97696   1.000
    C1455   C    0.37631   0.91028   0.00328   1.000
    C1456   C    0.33577   0.93111   0.03250   1.000
    C1457   C    0.32862   0.17204   0.91743   1.000
    C1458   C    0.34661   0.91701   0.05253   1.000
    C1459   C    0.38669   0.89562   0.02362   1.000
    C1460   C    0.37206   0.89889   0.04787   1.000
    C1461   C    0.63876   0.82441   0.78897   1.000
    C1462   C    0.47735   0.91673   0.88117   1.000
    C1463   C    0.58630   0.84199   0.80648   1.000
    C1464   C    0.43680   0.94363   0.86630   1.000
    C1465   C    0.40227   0.88918   0.93031   1.000
    C1466   C    0.29648   0.10659   0.99374   1.000
    C1467   C    0.27054   0.15715   0.96902   1.000
    C1468   C    0.34063   0.11604   0.96610   1.000
    C1469   C    0.36353   0.10795   0.92851   1.000
    C1470   C    0.45664   0.04203   0.00073   1.000
    C1471   C    0.47857   0.03782   0.96133   1.000
    C1472   C    0.45860   0.94621   0.91074   1.000
    C1473   C    0.50396   0.99199   0.95654   1.000
    C1474   C    0.38238   0.91888   0.95984   1.000
    C1475   C    0.41736   0.97254   0.89668   1.000
    C1476   C    0.31492   0.16590   0.94145   1.000
    C1477   C    0.34586   0.09263   0.91093   1.000
    C1478   C    0.67253   0.84271   0.77378   1.000
    C1479   C    0.51485   0.90963   0.84083   1.000
    C1480   C    0.55251   0.88351   0.81471   1.000
    C1481   C    0.38423   0.92826   0.86305   1.000
    C1482   C    0.45366   0.95001   0.81764   1.000
    C1483   C    0.29936   0.07824   0.03939   1.000
    C1484   C    0.27082   0.05050   0.01158   1.000
    C1485   C    0.36801   0.09421   0.99626   1.000
    C1486   C    0.40797   0.07002   0.00759   1.000
    C1487   C    0.41181   0.08433   0.92083   1.000
    C1488   C    0.45151   0.06039   0.93203   1.000
    C1489   C    0.47439   0.97758   0.90893   1.000
    C1490   C    0.49049   0.99335   0.92451   1.000
    C1491   C    0.34198   0.93941   0.99270   1.000
    C1492   C    0.31624   0.94517   0.03548   1.000
    C1493   C    0.40637   0.88186   0.02072   1.000
    C1494   C    0.38102   0.88740   0.06289   1.000
    C1495   C    0.59230   0.96616   0.13577   1.000
    C1496   C    0.71966   0.89037   0.94344   1.000
    C1497   C    0.70277   0.78908   0.82760   1.000
    C1498   C    0.73753   0.85045   0.88898   1.000
    C1499   C    0.74597   0.83545   0.87397   1.000
    C1500   C    0.82254   0.84479   0.93321   1.000
    C1501   C    0.77511   0.86780   0.93773   1.000
    C1502   C    0.79833   0.84359   0.93911   1.000
    C1503   C    0.79696   0.81932   0.94542   1.000
    C1504   C    0.60157   0.04163   0.06406   1.000
    C1505   C    0.62499   0.99695   0.09064   1.000
    C1506   C    0.62506   0.02205   0.06782   1.000
    C1507   C    0.64857   0.02610   0.04855   1.000
    C1508   C    0.54484   0.98201   0.08703   1.000
    C1509   C    0.58169   0.95039   0.10596   1.000
    C1510   C    0.56470   0.95760   0.09130   1.000
    C1511   C    0.52917   0.98848   0.07319   1.000
    C1512   C    0.51739   0.97801   0.04690   1.000
    C1513   C    0.53274   0.97073   0.06325   1.000
    C1514   C    0.56810   0.93984   0.08149   1.000
    C1515   C    0.55243   0.94626   0.06778   1.000
    C1516   C    0.62901   0.92736   0.96575   1.000
    C1517   C    0.60159   0.93637   0.97480   1.000
    C1518   C    0.71368   0.00806   0.92776   1.000
    C1519   C    0.72170   0.97696   0.90834   1.000
    C1520   C    0.71013   0.00328   0.91028   1.000
    C1521   C    0.70062   0.03250   0.93111   1.000
    C1522   C    0.58192   0.91743   0.17204   1.000
    C1523   C    0.68385   0.05253   0.91701   1.000
    C1524   C    0.69408   0.02362   0.89562   1.000
    C1525   C    0.68119   0.04787   0.89889   1.000
    C1526   C    0.74786   0.78897   0.82441   1.000
    C1527   C    0.72475   0.88117   0.91673   1.000
    C1528   C    0.76523   0.80648   0.84199   1.000
    C1529   C    0.75327   0.86630   0.94363   1.000
    C1530   C    0.77824   0.93031   0.88918   1.000
    C1531   C    0.60319   0.99374   0.10659   1.000
    C1532   C    0.60330   0.96902   0.15715   1.000
    C1533   C    0.57723   0.96610   0.11604   1.000
    C1534   C    0.60000   0.92851   0.10795   1.000
    C1535   C    0.50060   0.00073   0.04203   1.000
    C1536   C    0.52229   0.96133   0.03782   1.000
    C1537   C    0.68444   0.91074   0.94621   1.000
    C1538   C    0.54751   0.95654   0.99199   1.000
    C1539   C    0.73889   0.95984   0.91888   1.000
    C1540   C    0.71343   0.89668   0.97254   1.000
    C1541   C    0.57773   0.94145   0.16590   1.000
    C1542   C    0.65057   0.91093   0.09263   1.000
    C1543   C    0.71098   0.77378   0.84271   1.000
    C1544   C    0.73468   0.84083   0.90963   1.000
    C1545   C    0.74927   0.81471   0.88351   1.000
    C1546   C    0.82446   0.86305   0.92826   1.000
    C1547   C    0.77869   0.81764   0.95001   1.000
    C1548   C    0.58302   0.03939   0.07824   1.000
    C1549   C    0.66710   0.01158   0.05050   1.000
    C1550   C    0.54151   0.99626   0.09421   1.000
    C1551   C    0.51443   0.00759   0.07002   1.000
    C1552   C    0.58302   0.92083   0.08433   1.000
    C1553   C    0.55606   0.93203   0.06039   1.000
    C1554   C    0.63910   0.90893   0.97758   1.000
    C1555   C    0.59165   0.92451   0.99335   1.000
    C1556   C    0.72592   0.99270   0.93941   1.000
    C1557   C    0.70310   0.03548   0.94517   1.000
    C1558   C    0.69105   0.02072   0.88186   1.000
    C1559   C    0.66869   0.06289   0.88740   1.000
    C1560   C    0.13577   0.96616   0.59230   1.000
    C1561   C    0.94344   0.89037   0.71966   1.000
    C1562   C    0.82760   0.78908   0.70277   1.000
    C1563   C    0.88898   0.85045   0.73753   1.000
    C1564   C    0.87397   0.83545   0.74597   1.000
    C1565   C    0.93321   0.84479   0.82254   1.000
    C1566   C    0.93773   0.86780   0.77511   1.000
    C1567   C    0.93911   0.84359   0.79833   1.000
    C1568   C    0.94542   0.81932   0.79696   1.000
    C1569   C    0.06406   0.04163   0.60157   1.000
    C1570   C    0.09064   0.99695   0.62499   1.000
    C1571   C    0.06782   0.02205   0.62506   1.000
    C1572   C    0.04855   0.02610   0.64857   1.000
    C1573   C    0.08703   0.98201   0.54484   1.000
    C1574   C    0.10596   0.95039   0.58169   1.000
    C1575   C    0.09130   0.95760   0.56470   1.000
    C1576   C    0.07319   0.98848   0.52917   1.000
    C1577   C    0.04690   0.97801   0.51739   1.000
    C1578   C    0.06325   0.97073   0.53274   1.000
    C1579   C    0.08149   0.93984   0.56810   1.000
    C1580   C    0.06778   0.94626   0.55243   1.000
    C1581   C    0.96575   0.92736   0.62901   1.000
    C1582   C    0.97480   0.93637   0.60159   1.000
    C1583   C    0.92776   0.00806   0.71368   1.000
    C1584   C    0.90834   0.97696   0.72170   1.000
    C1585   C    0.91028   0.00328   0.71013   1.000
    C1586   C    0.93111   0.03250   0.70062   1.000
    C1587   C    0.17204   0.91743   0.58192   1.000
    C1588   C    0.91701   0.05253   0.68385   1.000
    C1589   C    0.89562   0.02362   0.69408   1.000
    C1590   C    0.89889   0.04787   0.68119   1.000
    C1591   C    0.82441   0.78897   0.74786   1.000
    C1592   C    0.91673   0.88117   0.72475   1.000
    C1593   C    0.84199   0.80648   0.76523   1.000
    C1594   C    0.94363   0.86630   0.75327   1.000
    C1595   C    0.88918   0.93031   0.77824   1.000
    C1596   C    0.10659   0.99374   0.60319   1.000
    C1597   C    0.15715   0.96902   0.60330   1.000
    C1598   C    0.11604   0.96610   0.57723   1.000
    C1599   C    0.10795   0.92851   0.60000   1.000
    C1600   C    0.04203   0.00073   0.50060   1.000
    C1601   C    0.03782   0.96133   0.52229   1.000
    C1602   C    0.94621   0.91074   0.68444   1.000
    C1603   C    0.99199   0.95654   0.54751   1.000
    C1604   C    0.91888   0.95984   0.73889   1.000
    C1605   C    0.97254   0.89668   0.71343   1.000
    C1606   C    0.16590   0.94145   0.57773   1.000
    C1607   C    0.09263   0.91093   0.65057   1.000
    C1608   C    0.84271   0.77378   0.71098   1.000
    C1609   C    0.90963   0.84083   0.73468   1.000
    C1610   C    0.88351   0.81471   0.74927   1.000
    C1611   C    0.92826   0.86305   0.82446   1.000
    C1612   C    0.95001   0.81764   0.77869   1.000
    C1613   C    0.07824   0.03939   0.58302   1.000
    C1614   C    0.05050   0.01158   0.66710   1.000
    C1615   C    0.09421   0.99626   0.54151   1.000
    C1616   C    0.07002   0.00759   0.51443   1.000
    C1617   C    0.08433   0.92083   0.58302   1.000
    C1618   C    0.06039   0.93203   0.55606   1.000
    C1619   C    0.97758   0.90893   0.63910   1.000
    C1620   C    0.99335   0.92451   0.59165   1.000
    C1621   C    0.93941   0.99270   0.72592   1.000
    C1622   C    0.94517   0.03548   0.70310   1.000
    C1623   C    0.88186   0.02072   0.69105   1.000
    C1624   C    0.88740   0.06289   0.66869   1.000
    C1625   C    0.96616   0.13577   0.30577   1.000
    C1626   C    0.89037   0.94344   0.44652   1.000
    C1627   C    0.78908   0.82760   0.68056   1.000
    C1628   C    0.85045   0.88898   0.52304   1.000
    C1629   C    0.83545   0.87397   0.54461   1.000
    C1630   C    0.84479   0.93321   0.39946   1.000
    C1631   C    0.86780   0.93773   0.41937   1.000
    C1632   C    0.84359   0.93911   0.41896   1.000
    C1633   C    0.81932   0.94542   0.43830   1.000
    C1634   C    0.04163   0.06406   0.29274   1.000
    C1635   C    0.99695   0.09064   0.28742   1.000
    C1636   C    0.02205   0.06782   0.28506   1.000
    C1637   C    0.02610   0.04855   0.27678   1.000
    C1638   C    0.98201   0.08703   0.38611   1.000
    C1639   C    0.95039   0.10596   0.36196   1.000
    C1640   C    0.95760   0.09130   0.38640   1.000
    C1641   C    0.98848   0.07319   0.40915   1.000
    C1642   C    0.97801   0.04690   0.45770   1.000
    C1643   C    0.97073   0.06325   0.43328   1.000
    C1644   C    0.93984   0.08149   0.41057   1.000
    C1645   C    0.94626   0.06778   0.43353   1.000
    C1646   C    0.92736   0.96575   0.47788   1.000
    C1647   C    0.93637   0.97480   0.48724   1.000
    C1648   C    0.00806   0.92776   0.35050   1.000
    C1649   C    0.97696   0.90834   0.39300   1.000
    C1650   C    0.00328   0.91028   0.37631   1.000
    C1651   C    0.03250   0.93111   0.33577   1.000
    C1652   C    0.91743   0.17204   0.32862   1.000
    C1653   C    0.05253   0.91701   0.34661   1.000
    C1654   C    0.02362   0.89562   0.38669   1.000
    C1655   C    0.04787   0.89889   0.37206   1.000
    C1656   C    0.78897   0.82441   0.63876   1.000
    C1657   C    0.88117   0.91673   0.47735   1.000
    C1658   C    0.80648   0.84199   0.58630   1.000
    C1659   C    0.86630   0.94363   0.43680   1.000
    C1660   C    0.93031   0.88918   0.40227   1.000
    C1661   C    0.99374   0.10659   0.29648   1.000
    C1662   C    0.96902   0.15715   0.27054   1.000
    C1663   C    0.96610   0.11604   0.34063   1.000
    C1664   C    0.92851   0.10795   0.36353   1.000
    C1665   C    0.00073   0.04203   0.45664   1.000
    C1666   C    0.96133   0.03782   0.47857   1.000
    C1667   C    0.91074   0.94621   0.45860   1.000
    C1668   C    0.95654   0.99199   0.50396   1.000
    C1669   C    0.95984   0.91888   0.38238   1.000
    C1670   C    0.89668   0.97254   0.41736   1.000
    C1671   C    0.94145   0.16590   0.31492   1.000
    C1672   C    0.91093   0.09263   0.34586   1.000
    C1673   C    0.77378   0.84271   0.67253   1.000
    C1674   C    0.84083   0.90963   0.51485   1.000
    C1675   C    0.81471   0.88351   0.55251   1.000
    C1676   C    0.86305   0.92826   0.38423   1.000
    C1677   C    0.81764   0.95001   0.45366   1.000
    C1678   C    0.03939   0.07824   0.29936   1.000
    C1679   C    0.01158   0.05050   0.27082   1.000
    C1680   C    0.99626   0.09421   0.36801   1.000
    C1681   C    0.00759   0.07002   0.40797   1.000
    C1682   C    0.92083   0.08433   0.41181   1.000
    C1683   C    0.93203   0.06039   0.45151   1.000
    C1684   C    0.90893   0.97758   0.47439   1.000
    C1685   C    0.92451   0.99335   0.49049   1.000
    C1686   C    0.99270   0.93941   0.34198   1.000
    C1687   C    0.03548   0.94517   0.31624   1.000
    C1688   C    0.02072   0.88186   0.40637   1.000
    C1689   C    0.06289   0.88740   0.38102   1.000
    C1690   C    0.59230   0.30577   0.13577   1.000
    C1691   C    0.71966   0.44652   0.94344   1.000
    C1692   C    0.70277   0.68056   0.82760   1.000
    C1693   C    0.73753   0.52304   0.88898   1.000
    C1694   C    0.74597   0.54461   0.87397   1.000
    C1695   C    0.82254   0.39946   0.93321   1.000
    C1696   C    0.77511   0.41937   0.93773   1.000
    C1697   C    0.79833   0.41896   0.93911   1.000
    C1698   C    0.79696   0.43830   0.94542   1.000
    C1699   C    0.60157   0.29274   0.06406   1.000
    C1700   C    0.62499   0.28742   0.09064   1.000
    C1701   C    0.62506   0.28506   0.06782   1.000
    C1702   C    0.64857   0.27678   0.04855   1.000
    C1703   C    0.54484   0.38611   0.08703   1.000
    C1704   C    0.58169   0.36196   0.10596   1.000
    C1705   C    0.56470   0.38640   0.09130   1.000
    C1706   C    0.52917   0.40915   0.07319   1.000
    C1707   C    0.51739   0.45770   0.04690   1.000
    C1708   C    0.53274   0.43328   0.06325   1.000
    C1709   C    0.56810   0.41057   0.08149   1.000
    C1710   C    0.55243   0.43353   0.06778   1.000
    C1711   C    0.62901   0.47788   0.96575   1.000
    C1712   C    0.60159   0.48724   0.97480   1.000
    C1713   C    0.71368   0.35050   0.92776   1.000
    C1714   C    0.72170   0.39300   0.90834   1.000
    C1715   C    0.71013   0.37631   0.91028   1.000
    C1716   C    0.70062   0.33577   0.93111   1.000
    C1717   C    0.58192   0.32862   0.17204   1.000
    C1718   C    0.68385   0.34661   0.91701   1.000
    C1719   C    0.69408   0.38669   0.89562   1.000
    C1720   C    0.68119   0.37206   0.89889   1.000
    C1721   C    0.74786   0.63876   0.82441   1.000
    C1722   C    0.72475   0.47735   0.91673   1.000
    C1723   C    0.76523   0.58630   0.84199   1.000
    C1724   C    0.75327   0.43680   0.94363   1.000
    C1725   C    0.77824   0.40227   0.88918   1.000
    C1726   C    0.60319   0.29648   0.10659   1.000
    C1727   C    0.60330   0.27054   0.15715   1.000
    C1728   C    0.57723   0.34063   0.11604   1.000
    C1729   C    0.60000   0.36353   0.10795   1.000
    C1730   C    0.50060   0.45664   0.04203   1.000
    C1731   C    0.52229   0.47857   0.03782   1.000
    C1732   C    0.68444   0.45860   0.94621   1.000
    C1733   C    0.54751   0.50396   0.99199   1.000
    C1734   C    0.73889   0.38238   0.91888   1.000
    C1735   C    0.71343   0.41736   0.97254   1.000
    C1736   C    0.57773   0.31492   0.16590   1.000
    C1737   C    0.65057   0.34586   0.09263   1.000
    C1738   C    0.71098   0.67253   0.84271   1.000
    C1739   C    0.73468   0.51485   0.90963   1.000
    C1740   C    0.74927   0.55251   0.88351   1.000
    C1741   C    0.82446   0.38423   0.92826   1.000
    C1742   C    0.77869   0.45366   0.95001   1.000
    C1743   C    0.58302   0.29936   0.07824   1.000
    C1744   C    0.66710   0.27082   0.05050   1.000
    C1745   C    0.54151   0.36801   0.09421   1.000
    C1746   C    0.51443   0.40797   0.07002   1.000
    C1747   C    0.58302   0.41181   0.08433   1.000
    C1748   C    0.55606   0.45151   0.06039   1.000
    C1749   C    0.63910   0.47439   0.97758   1.000
    C1750   C    0.59165   0.49049   0.99335   1.000
    C1751   C    0.72592   0.34198   0.93941   1.000
    C1752   C    0.70310   0.31624   0.94517   1.000
    C1753   C    0.69105   0.40637   0.88186   1.000
    C1754   C    0.66869   0.38102   0.88740   1.000
    C1755   C    0.30577   0.59230   0.96616   1.000
    C1756   C    0.44652   0.71966   0.89037   1.000
    C1757   C    0.68056   0.70277   0.78908   1.000
    C1758   C    0.52304   0.73753   0.85045   1.000
    C1759   C    0.54461   0.74597   0.83545   1.000
    C1760   C    0.39946   0.82254   0.84479   1.000
    C1761   C    0.41937   0.77511   0.86780   1.000
    C1762   C    0.41896   0.79833   0.84359   1.000
    C1763   C    0.43830   0.79696   0.81932   1.000
    C1764   C    0.29274   0.60157   0.04163   1.000
    C1765   C    0.28742   0.62499   0.99695   1.000
    C1766   C    0.28506   0.62506   0.02205   1.000
    C1767   C    0.27678   0.64857   0.02610   1.000
    C1768   C    0.38611   0.54484   0.98201   1.000
    C1769   C    0.36196   0.58169   0.95039   1.000
    C1770   C    0.38640   0.56470   0.95760   1.000
    C1771   C    0.40915   0.52917   0.98848   1.000
    C1772   C    0.45770   0.51739   0.97801   1.000
    C1773   C    0.43328   0.53274   0.97073   1.000
    C1774   C    0.41057   0.56810   0.93984   1.000
    C1775   C    0.43353   0.55243   0.94626   1.000
    C1776   C    0.47788   0.62901   0.92736   1.000
    C1777   C    0.48724   0.60159   0.93637   1.000
    C1778   C    0.35050   0.71368   0.00806   1.000
    C1779   C    0.39300   0.72170   0.97696   1.000
    C1780   C    0.37631   0.71013   0.00328   1.000
    C1781   C    0.33577   0.70062   0.03250   1.000
    C1782   C    0.32862   0.58192   0.91743   1.000
    C1783   C    0.34661   0.68385   0.05253   1.000
    C1784   C    0.38669   0.69408   0.02362   1.000
    C1785   C    0.37206   0.68119   0.04787   1.000
    C1786   C    0.63876   0.74786   0.78897   1.000
    C1787   C    0.47735   0.72475   0.88117   1.000
    C1788   C    0.58630   0.76523   0.80648   1.000
    C1789   C    0.43680   0.75327   0.86630   1.000
    C1790   C    0.40227   0.77824   0.93031   1.000
    C1791   C    0.29648   0.60319   0.99374   1.000
    C1792   C    0.27054   0.60330   0.96902   1.000
    C1793   C    0.34063   0.57723   0.96610   1.000
    C1794   C    0.36353   0.60000   0.92851   1.000
    C1795   C    0.45664   0.50060   0.00073   1.000
    C1796   C    0.47857   0.52229   0.96133   1.000
    C1797   C    0.45860   0.68444   0.91074   1.000
    C1798   C    0.50396   0.54751   0.95654   1.000
    C1799   C    0.38238   0.73889   0.95984   1.000
    C1800   C    0.41736   0.71343   0.89668   1.000
    C1801   C    0.31492   0.57773   0.94145   1.000
    C1802   C    0.34586   0.65057   0.91093   1.000
    C1803   C    0.67253   0.71098   0.77378   1.000
    C1804   C    0.51485   0.73468   0.84083   1.000
    C1805   C    0.55251   0.74927   0.81471   1.000
    C1806   C    0.38423   0.82446   0.86305   1.000
    C1807   C    0.45366   0.77869   0.81764   1.000
    C1808   C    0.29936   0.58302   0.03939   1.000
    C1809   C    0.27082   0.66710   0.01158   1.000
    C1810   C    0.36801   0.54151   0.99626   1.000
    C1811   C    0.40797   0.51443   0.00759   1.000
    C1812   C    0.41181   0.58302   0.92083   1.000
    C1813   C    0.45151   0.55606   0.93203   1.000
    C1814   C    0.47439   0.63910   0.90893   1.000
    C1815   C    0.49049   0.59165   0.92451   1.000
    C1816   C    0.34198   0.72592   0.99270   1.000
    C1817   C    0.31624   0.70310   0.03548   1.000
    C1818   C    0.40637   0.69105   0.02072   1.000
    C1819   C    0.38102   0.66869   0.06289   1.000
    C1820   C    0.59230   0.13577   0.96616   1.000
    C1821   C    0.71966   0.94344   0.89037   1.000
    C1822   C    0.70277   0.82760   0.78908   1.000
    C1823   C    0.73753   0.88898   0.85045   1.000
    C1824   C    0.74597   0.87397   0.83545   1.000
    C1825   C    0.82254   0.93321   0.84479   1.000
    C1826   C    0.77511   0.93773   0.86780   1.000
    C1827   C    0.79833   0.93911   0.84359   1.000
    C1828   C    0.79696   0.94542   0.81932   1.000
    C1829   C    0.60157   0.06406   0.04163   1.000
    C1830   C    0.62499   0.09064   0.99695   1.000
    C1831   C    0.62506   0.06782   0.02205   1.000
    C1832   C    0.64857   0.04855   0.02610   1.000
    C1833   C    0.54484   0.08703   0.98201   1.000
    C1834   C    0.58169   0.10596   0.95039   1.000
    C1835   C    0.56470   0.09130   0.95760   1.000
    C1836   C    0.52917   0.07319   0.98848   1.000
    C1837   C    0.51739   0.04690   0.97801   1.000
    C1838   C    0.53274   0.06325   0.97073   1.000
    C1839   C    0.56810   0.08149   0.93984   1.000
    C1840   C    0.55243   0.06778   0.94626   1.000
    C1841   C    0.62901   0.96575   0.92736   1.000
    C1842   C    0.60159   0.97480   0.93637   1.000
    C1843   C    0.71368   0.92776   0.00806   1.000
    C1844   C    0.72170   0.90834   0.97696   1.000
    C1845   C    0.71013   0.91028   0.00328   1.000
    C1846   C    0.70062   0.93111   0.03250   1.000
    C1847   C    0.58192   0.17204   0.91743   1.000
    C1848   C    0.68385   0.91701   0.05253   1.000
    C1849   C    0.69408   0.89562   0.02362   1.000
    C1850   C    0.68119   0.89889   0.04787   1.000
    C1851   C    0.74786   0.82441   0.78897   1.000
    C1852   C    0.72475   0.91673   0.88117   1.000
    C1853   C    0.76523   0.84199   0.80648   1.000
    C1854   C    0.75327   0.94363   0.86630   1.000
    C1855   C    0.77824   0.88918   0.93031   1.000
    C1856   C    0.60319   0.10659   0.99374   1.000
    C1857   C    0.60330   0.15715   0.96902   1.000
    C1858   C    0.57723   0.11604   0.96610   1.000
    C1859   C    0.60000   0.10795   0.92851   1.000
    C1860   C    0.50060   0.04203   0.00073   1.000
    C1861   C    0.52229   0.03782   0.96133   1.000
    C1862   C    0.68444   0.94621   0.91074   1.000
    C1863   C    0.54751   0.99199   0.95654   1.000
    C1864   C    0.73889   0.91888   0.95984   1.000
    C1865   C    0.71343   0.97254   0.89668   1.000
    C1866   C    0.57773   0.16590   0.94145   1.000
    C1867   C    0.65057   0.09263   0.91093   1.000
    C1868   C    0.71098   0.84271   0.77378   1.000
    C1869   C    0.73468   0.90963   0.84083   1.000
    C1870   C    0.74927   0.88351   0.81471   1.000
    C1871   C    0.82446   0.92826   0.86305   1.000
    C1872   C    0.77869   0.95001   0.81764   1.000
    C1873   C    0.58302   0.07824   0.03939   1.000
    C1874   C    0.66710   0.05050   0.01158   1.000
    C1875   C    0.54151   0.09421   0.99626   1.000
    C1876   C    0.51443   0.07002   0.00759   1.000
    C1877   C    0.58302   0.08433   0.92083   1.000
    C1878   C    0.55606   0.06039   0.93203   1.000
    C1879   C    0.63910   0.97758   0.90893   1.000
    C1880   C    0.59165   0.99335   0.92451   1.000
    C1881   C    0.72592   0.93941   0.99270   1.000
    C1882   C    0.70310   0.94517   0.03548   1.000
    C1883   C    0.69105   0.88186   0.02072   1.000
    C1884   C    0.66869   0.88740   0.06289   1.000
    C1885   C    0.30577   0.96616   0.13577   1.000
    C1886   C    0.44652   0.89037   0.94344   1.000
    C1887   C    0.68056   0.78908   0.82760   1.000
    C1888   C    0.52304   0.85045   0.88898   1.000
    C1889   C    0.54461   0.83545   0.87397   1.000
    C1890   C    0.39946   0.84479   0.93321   1.000
    C1891   C    0.41937   0.86780   0.93773   1.000
    C1892   C    0.41896   0.84359   0.93911   1.000
    C1893   C    0.43830   0.81932   0.94542   1.000
    C1894   C    0.29274   0.04163   0.06406   1.000
    C1895   C    0.28742   0.99695   0.09064   1.000
    C1896   C    0.28506   0.02205   0.06782   1.000
    C1897   C    0.27678   0.02610   0.04855   1.000
    C1898   C    0.38611   0.98201   0.08703   1.000
    C1899   C    0.36196   0.95039   0.10596   1.000
    C1900   C    0.38640   0.95760   0.09130   1.000
    C1901   C    0.40915   0.98848   0.07319   1.000
    C1902   C    0.45770   0.97801   0.04690   1.000
    C1903   C    0.43328   0.97073   0.06325   1.000
    C1904   C    0.41057   0.93984   0.08149   1.000
    C1905   C    0.43353   0.94626   0.06778   1.000
    C1906   C    0.47788   0.92736   0.96575   1.000
    C1907   C    0.48724   0.93637   0.97480   1.000
    C1908   C    0.35050   0.00806   0.92776   1.000
    C1909   C    0.39300   0.97696   0.90834   1.000
    C1910   C    0.37631   0.00328   0.91028   1.000
    C1911   C    0.33577   0.03250   0.93111   1.000
    C1912   C    0.32862   0.91743   0.17204   1.000
    C1913   C    0.34661   0.05253   0.91701   1.000
    C1914   C    0.38669   0.02362   0.89562   1.000
    C1915   C    0.37206   0.04787   0.89889   1.000
    C1916   C    0.63876   0.78897   0.82441   1.000
    C1917   C    0.47735   0.88117   0.91673   1.000
    C1918   C    0.58630   0.80648   0.84199   1.000
    C1919   C    0.43680   0.86630   0.94363   1.000
    C1920   C    0.40227   0.93031   0.88918   1.000
    C1921   C    0.29648   0.99374   0.10659   1.000
    C1922   C    0.27054   0.96902   0.15715   1.000
    C1923   C    0.34063   0.96610   0.11604   1.000
    C1924   C    0.36353   0.92851   0.10795   1.000
    C1925   C    0.45664   0.00073   0.04203   1.000
    C1926   C    0.47857   0.96133   0.03782   1.000
    C1927   C    0.45860   0.91074   0.94621   1.000
    C1928   C    0.50396   0.95654   0.99199   1.000
    C1929   C    0.38238   0.95984   0.91888   1.000
    C1930   C    0.41736   0.89668   0.97254   1.000
    C1931   C    0.31492   0.94145   0.16590   1.000
    C1932   C    0.34586   0.91093   0.09263   1.000
    C1933   C    0.67253   0.77378   0.84271   1.000
    C1934   C    0.51485   0.84083   0.90963   1.000
    C1935   C    0.55251   0.81471   0.88351   1.000
    C1936   C    0.38423   0.86305   0.92826   1.000
    C1937   C    0.45366   0.81764   0.95001   1.000
    C1938   C    0.29936   0.03939   0.07824   1.000
    C1939   C    0.27082   0.01158   0.05050   1.000
    C1940   C    0.36801   0.99626   0.09421   1.000
    C1941   C    0.40797   0.00759   0.07002   1.000
    C1942   C    0.41181   0.92083   0.08433   1.000
    C1943   C    0.45151   0.93203   0.06039   1.000
    C1944   C    0.47439   0.90893   0.97758   1.000
    C1945   C    0.49049   0.92451   0.99335   1.000
    C1946   C    0.34198   0.99270   0.93941   1.000
    C1947   C    0.31624   0.03548   0.94517   1.000
    C1948   C    0.40637   0.02072   0.88186   1.000
    C1949   C    0.38102   0.06289   0.88740   1.000
    C1950   C    0.13577   0.59230   0.30577   1.000
    C1951   C    0.94344   0.71966   0.44652   1.000
    C1952   C    0.82760   0.70277   0.68056   1.000
    C1953   C    0.88898   0.73753   0.52304   1.000
    C1954   C    0.87397   0.74597   0.54461   1.000
    C1955   C    0.93321   0.82254   0.39946   1.000
    C1956   C    0.93773   0.77511   0.41937   1.000
    C1957   C    0.93911   0.79833   0.41896   1.000
    C1958   C    0.94542   0.79696   0.43830   1.000
    C1959   C    0.06406   0.60157   0.29274   1.000
    C1960   C    0.09064   0.62499   0.28742   1.000
    C1961   C    0.06782   0.62506   0.28506   1.000
    C1962   C    0.04855   0.64857   0.27678   1.000
    C1963   C    0.08703   0.54484   0.38611   1.000
    C1964   C    0.10596   0.58169   0.36196   1.000
    C1965   C    0.09130   0.56470   0.38640   1.000
    C1966   C    0.07319   0.52917   0.40915   1.000
    C1967   C    0.04690   0.51739   0.45770   1.000
    C1968   C    0.06325   0.53274   0.43328   1.000
    C1969   C    0.08149   0.56810   0.41057   1.000
    C1970   C    0.06778   0.55243   0.43353   1.000
    C1971   C    0.96575   0.62901   0.47788   1.000
    C1972   C    0.97480   0.60159   0.48724   1.000
    C1973   C    0.92776   0.71368   0.35050   1.000
    C1974   C    0.90834   0.72170   0.39300   1.000
    C1975   C    0.91028   0.71013   0.37631   1.000
    C1976   C    0.93111   0.70062   0.33577   1.000
    C1977   C    0.17204   0.58192   0.32862   1.000
    C1978   C    0.91701   0.68385   0.34661   1.000
    C1979   C    0.89562   0.69408   0.38669   1.000
    C1980   C    0.89889   0.68119   0.37206   1.000
    C1981   C    0.82441   0.74786   0.63876   1.000
    C1982   C    0.91673   0.72475   0.47735   1.000
    C1983   C    0.84199   0.76523   0.58630   1.000
    C1984   C    0.94363   0.75327   0.43680   1.000
    C1985   C    0.88918   0.77824   0.40227   1.000
    C1986   C    0.10659   0.60319   0.29648   1.000
    C1987   C    0.15715   0.60330   0.27054   1.000
    C1988   C    0.11604   0.57723   0.34063   1.000
    C1989   C    0.10795   0.60000   0.36353   1.000
    C1990   C    0.04203   0.50060   0.45664   1.000
    C1991   C    0.03782   0.52229   0.47857   1.000
    C1992   C    0.94621   0.68444   0.45860   1.000
    C1993   C    0.99199   0.54751   0.50396   1.000
    C1994   C    0.91888   0.73889   0.38238   1.000
    C1995   C    0.97254   0.71343   0.41736   1.000
    C1996   C    0.16590   0.57773   0.31492   1.000
    C1997   C    0.09263   0.65057   0.34586   1.000
    C1998   C    0.84271   0.71098   0.67253   1.000
    C1999   C    0.90963   0.73468   0.51485   1.000
    C2000   C    0.88351   0.74927   0.55251   1.000
    C2001   C    0.92826   0.82446   0.38423   1.000
    C2002   C    0.95001   0.77869   0.45366   1.000
    C2003   C    0.07824   0.58302   0.29936   1.000
    C2004   C    0.05050   0.66710   0.27082   1.000
    C2005   C    0.09421   0.54151   0.36801   1.000
    C2006   C    0.07002   0.51443   0.40797   1.000
    C2007   C    0.08433   0.58302   0.41181   1.000
    C2008   C    0.06039   0.55606   0.45151   1.000
    C2009   C    0.97758   0.63910   0.47439   1.000
    C2010   C    0.99335   0.59165   0.49049   1.000
    C2011   C    0.93941   0.72592   0.34198   1.000
    C2012   C    0.94517   0.70310   0.31624   1.000
    C2013   C    0.88186   0.69105   0.40637   1.000
    C2014   C    0.88740   0.66869   0.38102   1.000
    C2015   C    0.96616   0.30577   0.59230   1.000
    C2016   C    0.89037   0.44652   0.71966   1.000
    C2017   C    0.78908   0.68056   0.70277   1.000
    C2018   C    0.85045   0.52304   0.73753   1.000
    C2019   C    0.83545   0.54461   0.74597   1.000
    C2020   C    0.84479   0.39946   0.82254   1.000
    C2021   C    0.86780   0.41937   0.77511   1.000
    C2022   C    0.84359   0.41896   0.79833   1.000
    C2023   C    0.81932   0.43830   0.79696   1.000
    C2024   C    0.04163   0.29274   0.60157   1.000
    C2025   C    0.99695   0.28742   0.62499   1.000
    C2026   C    0.02205   0.28506   0.62506   1.000
    C2027   C    0.02610   0.27678   0.64857   1.000
    C2028   C    0.98201   0.38611   0.54484   1.000
    C2029   C    0.95039   0.36196   0.58169   1.000
    C2030   C    0.95760   0.38640   0.56470   1.000
    C2031   C    0.98848   0.40915   0.52917   1.000
    C2032   C    0.97801   0.45770   0.51739   1.000
    C2033   C    0.97073   0.43328   0.53274   1.000
    C2034   C    0.93984   0.41057   0.56810   1.000
    C2035   C    0.94626   0.43353   0.55243   1.000
    C2036   C    0.92736   0.47788   0.62901   1.000
    C2037   C    0.93637   0.48724   0.60159   1.000
    C2038   C    0.00806   0.35050   0.71368   1.000
    C2039   C    0.97696   0.39300   0.72170   1.000
    C2040   C    0.00328   0.37631   0.71013   1.000
    C2041   C    0.03250   0.33577   0.70062   1.000
    C2042   C    0.91743   0.32862   0.58192   1.000
    C2043   C    0.05253   0.34661   0.68385   1.000
    C2044   C    0.02362   0.38669   0.69408   1.000
    C2045   C    0.04787   0.37206   0.68119   1.000
    C2046   C    0.78897   0.63876   0.74786   1.000
    C2047   C    0.88117   0.47735   0.72475   1.000
    C2048   C    0.80648   0.58630   0.76523   1.000
    C2049   C    0.86630   0.43680   0.75327   1.000
    C2050   C    0.93031   0.40227   0.77824   1.000
    C2051   C    0.99374   0.29648   0.60319   1.000
    C2052   C    0.96902   0.27054   0.60330   1.000
    C2053   C    0.96610   0.34063   0.57723   1.000
    C2054   C    0.92851   0.36353   0.60000   1.000
    C2055   C    0.00073   0.45664   0.50060   1.000
    C2056   C    0.96133   0.47857   0.52229   1.000
    C2057   C    0.91074   0.45860   0.68444   1.000
    C2058   C    0.95654   0.50396   0.54751   1.000
    C2059   C    0.95984   0.38238   0.73889   1.000
    C2060   C    0.89668   0.41736   0.71343   1.000
    C2061   C    0.94145   0.31492   0.57773   1.000
    C2062   C    0.91093   0.34586   0.65057   1.000
    C2063   C    0.77378   0.67253   0.71098   1.000
    C2064   C    0.84083   0.51485   0.73468   1.000
    C2065   C    0.81471   0.55251   0.74927   1.000
    C2066   C    0.86305   0.38423   0.82446   1.000
    C2067   C    0.81764   0.45366   0.77869   1.000
    C2068   C    0.03939   0.29936   0.58302   1.000
    C2069   C    0.01158   0.27082   0.66710   1.000
    C2070   C    0.99626   0.36801   0.54151   1.000
    C2071   C    0.00759   0.40797   0.51443   1.000
    C2072   C    0.92083   0.41181   0.58302   1.000
    C2073   C    0.93203   0.45151   0.55606   1.000
    C2074   C    0.90893   0.47439   0.63910   1.000
    C2075   C    0.92451   0.49049   0.59165   1.000
    C2076   C    0.99270   0.34198   0.72592   1.000
    C2077   C    0.03548   0.31624   0.70310   1.000
    C2078   C    0.02072   0.40637   0.69105   1.000
    C2079   C    0.06289   0.38102   0.66869   1.000
    C2080   C    0.96616   0.59230   0.13577   1.000
    C2081   C    0.89037   0.71966   0.94344   1.000
    C2082   C    0.78908   0.70277   0.82760   1.000
    C2083   C    0.85045   0.73753   0.88898   1.000
    C2084   C    0.83545   0.74597   0.87397   1.000
    C2085   C    0.84479   0.82254   0.93321   1.000
    C2086   C    0.86780   0.77511   0.93773   1.000
    C2087   C    0.84359   0.79833   0.93911   1.000
    C2088   C    0.81932   0.79696   0.94542   1.000
    C2089   C    0.04163   0.60157   0.06406   1.000
    C2090   C    0.99695   0.62499   0.09064   1.000
    C2091   C    0.02205   0.62506   0.06782   1.000
    C2092   C    0.02610   0.64857   0.04855   1.000
    C2093   C    0.98201   0.54484   0.08703   1.000
    C2094   C    0.95039   0.58169   0.10596   1.000
    C2095   C    0.95760   0.56470   0.09130   1.000
    C2096   C    0.98848   0.52917   0.07319   1.000
    C2097   C    0.97801   0.51739   0.04690   1.000
    C2098   C    0.97073   0.53274   0.06325   1.000
    C2099   C    0.93984   0.56810   0.08149   1.000
    C2100   C    0.94626   0.55243   0.06778   1.000
    C2101   C    0.92736   0.62901   0.96575   1.000
    C2102   C    0.93637   0.60159   0.97480   1.000
    C2103   C    0.00806   0.71368   0.92776   1.000
    C2104   C    0.97696   0.72170   0.90834   1.000
    C2105   C    0.00328   0.71013   0.91028   1.000
    C2106   C    0.03250   0.70062   0.93111   1.000
    C2107   C    0.91743   0.58192   0.17204   1.000
    C2108   C    0.05253   0.68385   0.91701   1.000
    C2109   C    0.02362   0.69408   0.89562   1.000
    C2110   C    0.04787   0.68119   0.89889   1.000
    C2111   C    0.78897   0.74786   0.82441   1.000
    C2112   C    0.88117   0.72475   0.91673   1.000
    C2113   C    0.80648   0.76523   0.84199   1.000
    C2114   C    0.86630   0.75327   0.94363   1.000
    C2115   C    0.93031   0.77824   0.88918   1.000
    C2116   C    0.99374   0.60319   0.10659   1.000
    C2117   C    0.96902   0.60330   0.15715   1.000
    C2118   C    0.96610   0.57723   0.11604   1.000
    C2119   C    0.92851   0.60000   0.10795   1.000
    C2120   C    0.00073   0.50060   0.04203   1.000
    C2121   C    0.96133   0.52229   0.03782   1.000
    C2122   C    0.91074   0.68444   0.94621   1.000
    C2123   C    0.95654   0.54751   0.99199   1.000
    C2124   C    0.95984   0.73889   0.91888   1.000
    C2125   C    0.89668   0.71343   0.97254   1.000
    C2126   C    0.94145   0.57773   0.16590   1.000
    C2127   C    0.91093   0.65057   0.09263   1.000
    C2128   C    0.77378   0.71098   0.84271   1.000
    C2129   C    0.84083   0.73468   0.90963   1.000
    C2130   C    0.81471   0.74927   0.88351   1.000
    C2131   C    0.86305   0.82446   0.92826   1.000
    C2132   C    0.81764   0.77869   0.95001   1.000
    C2133   C    0.03939   0.58302   0.07824   1.000
    C2134   C    0.01158   0.66710   0.05050   1.000
    C2135   C    0.99626   0.54151   0.09421   1.000
    C2136   C    0.00759   0.51443   0.07002   1.000
    C2137   C    0.92083   0.58302   0.08433   1.000
    C2138   C    0.93203   0.55606   0.06039   1.000
    C2139   C    0.90893   0.63910   0.97758   1.000
    C2140   C    0.92451   0.59165   0.99335   1.000
    C2141   C    0.99270   0.72592   0.93941   1.000
    C2142   C    0.03548   0.70310   0.94517   1.000
    C2143   C    0.02072   0.69105   0.88186   1.000
    C2144   C    0.06289   0.66869   0.88740   1.000
    C2145   C    0.13577   0.30577   0.96616   1.000
    C2146   C    0.94344   0.44652   0.89037   1.000
    C2147   C    0.82760   0.68056   0.78908   1.000
    C2148   C    0.88898   0.52304   0.85045   1.000
    C2149   C    0.87397   0.54461   0.83545   1.000
    C2150   C    0.93321   0.39946   0.84479   1.000
    C2151   C    0.93773   0.41937   0.86780   1.000
    C2152   C    0.93911   0.41896   0.84359   1.000
    C2153   C    0.94542   0.43830   0.81932   1.000
    C2154   C    0.06406   0.29274   0.04163   1.000
    C2155   C    0.09064   0.28742   0.99695   1.000
    C2156   C    0.06782   0.28506   0.02205   1.000
    C2157   C    0.04855   0.27678   0.02610   1.000
    C2158   C    0.08703   0.38611   0.98201   1.000
    C2159   C    0.10596   0.36196   0.95039   1.000
    C2160   C    0.09130   0.38640   0.95760   1.000
    C2161   C    0.07319   0.40915   0.98848   1.000
    C2162   C    0.04690   0.45770   0.97801   1.000
    C2163   C    0.06325   0.43328   0.97073   1.000
    C2164   C    0.08149   0.41057   0.93984   1.000
    C2165   C    0.06778   0.43353   0.94626   1.000
    C2166   C    0.96575   0.47788   0.92736   1.000
    C2167   C    0.97480   0.48724   0.93637   1.000
    C2168   C    0.92776   0.35050   0.00806   1.000
    C2169   C    0.90834   0.39300   0.97696   1.000
    C2170   C    0.91028   0.37631   0.00328   1.000
    C2171   C    0.93111   0.33577   0.03250   1.000
    C2172   C    0.17204   0.32862   0.91743   1.000
    C2173   C    0.91701   0.34661   0.05253   1.000
    C2174   C    0.89562   0.38669   0.02362   1.000
    C2175   C    0.89889   0.37206   0.04787   1.000
    C2176   C    0.82441   0.63876   0.78897   1.000
    C2177   C    0.91673   0.47735   0.88117   1.000
    C2178   C    0.84199   0.58630   0.80648   1.000
    C2179   C    0.94363   0.43680   0.86630   1.000
    C2180   C    0.88918   0.40227   0.93031   1.000
    C2181   C    0.10659   0.29648   0.99374   1.000
    C2182   C    0.15715   0.27054   0.96902   1.000
    C2183   C    0.11604   0.34063   0.96610   1.000
    C2184   C    0.10795   0.36353   0.92851   1.000
    C2185   C    0.04203   0.45664   0.00073   1.000
    C2186   C    0.03782   0.47857   0.96133   1.000
    C2187   C    0.94621   0.45860   0.91074   1.000
    C2188   C    0.99199   0.50396   0.95654   1.000
    C2189   C    0.91888   0.38238   0.95984   1.000
    C2190   C    0.97254   0.41736   0.89668   1.000
    C2191   C    0.16590   0.31492   0.94145   1.000
    C2192   C    0.09263   0.34586   0.91093   1.000
    C2193   C    0.84271   0.67253   0.77378   1.000
    C2194   C    0.90963   0.51485   0.84083   1.000
    C2195   C    0.88351   0.55251   0.81471   1.000
    C2196   C    0.92826   0.38423   0.86305   1.000
    C2197   C    0.95001   0.45366   0.81764   1.000
    C2198   C    0.07824   0.29936   0.03939   1.000
    C2199   C    0.05050   0.27082   0.01158   1.000
    C2200   C    0.09421   0.36801   0.99626   1.000
    C2201   C    0.07002   0.40797   0.00759   1.000
    C2202   C    0.08433   0.41181   0.92083   1.000
    C2203   C    0.06039   0.45151   0.93203   1.000
    C2204   C    0.97758   0.47439   0.90893   1.000
    C2205   C    0.99335   0.49049   0.92451   1.000
    C2206   C    0.93941   0.34198   0.99270   1.000
    C2207   C    0.94517   0.31624   0.03548   1.000
    C2208   C    0.88186   0.40637   0.02072   1.000
    C2209   C    0.88740   0.38102   0.06289   1.000
    C2210   C    0.30577   0.13577   0.59230   1.000
    C2211   C    0.44652   0.94344   0.71966   1.000
    C2212   C    0.68056   0.82760   0.70277   1.000
    C2213   C    0.52304   0.88898   0.73753   1.000
    C2214   C    0.54461   0.87397   0.74597   1.000
    C2215   C    0.39946   0.93321   0.82254   1.000
    C2216   C    0.41937   0.93773   0.77511   1.000
    C2217   C    0.41896   0.93911   0.79833   1.000
    C2218   C    0.43830   0.94542   0.79696   1.000
    C2219   C    0.29274   0.06406   0.60157   1.000
    C2220   C    0.28742   0.09064   0.62499   1.000
    C2221   C    0.28506   0.06782   0.62506   1.000
    C2222   C    0.27678   0.04855   0.64857   1.000
    C2223   C    0.38611   0.08703   0.54484   1.000
    C2224   C    0.36196   0.10596   0.58169   1.000
    C2225   C    0.38640   0.09130   0.56470   1.000
    C2226   C    0.40915   0.07319   0.52917   1.000
    C2227   C    0.45770   0.04690   0.51739   1.000
    C2228   C    0.43328   0.06325   0.53274   1.000
    C2229   C    0.41057   0.08149   0.56810   1.000
    C2230   C    0.43353   0.06778   0.55243   1.000
    C2231   C    0.47788   0.96575   0.62901   1.000
    C2232   C    0.48724   0.97480   0.60159   1.000
    C2233   C    0.35050   0.92776   0.71368   1.000
    C2234   C    0.39300   0.90834   0.72170   1.000
    C2235   C    0.37631   0.91028   0.71013   1.000
    C2236   C    0.33577   0.93111   0.70062   1.000
    C2237   C    0.32862   0.17204   0.58192   1.000
    C2238   C    0.34661   0.91701   0.68385   1.000
    C2239   C    0.38669   0.89562   0.69408   1.000
    C2240   C    0.37206   0.89889   0.68119   1.000
    C2241   C    0.63876   0.82441   0.74786   1.000
    C2242   C    0.47735   0.91673   0.72475   1.000
    C2243   C    0.58630   0.84199   0.76523   1.000
    C2244   C    0.43680   0.94363   0.75327   1.000
    C2245   C    0.40227   0.88918   0.77824   1.000
    C2246   C    0.29648   0.10659   0.60319   1.000
    C2247   C    0.27054   0.15715   0.60330   1.000
    C2248   C    0.34063   0.11604   0.57723   1.000
    C2249   C    0.36353   0.10795   0.60000   1.000
    C2250   C    0.45664   0.04203   0.50060   1.000
    C2251   C    0.47857   0.03782   0.52229   1.000
    C2252   C    0.45860   0.94621   0.68444   1.000
    C2253   C    0.50396   0.99199   0.54751   1.000
    C2254   C    0.38238   0.91888   0.73889   1.000
    C2255   C    0.41736   0.97254   0.71343   1.000
    C2256   C    0.31492   0.16590   0.57773   1.000
    C2257   C    0.34586   0.09263   0.65057   1.000
    C2258   C    0.67253   0.84271   0.71098   1.000
    C2259   C    0.51485   0.90963   0.73468   1.000
    C2260   C    0.55251   0.88351   0.74927   1.000
    C2261   C    0.38423   0.92826   0.82446   1.000
    C2262   C    0.45366   0.95001   0.77869   1.000
    C2263   C    0.29936   0.07824   0.58302   1.000
    C2264   C    0.27082   0.05050   0.66710   1.000
    C2265   C    0.36801   0.09421   0.54151   1.000
    C2266   C    0.40797   0.07002   0.51443   1.000
    C2267   C    0.41181   0.08433   0.58302   1.000
    C2268   C    0.45151   0.06039   0.55606   1.000
    C2269   C    0.47439   0.97758   0.63910   1.000
    C2270   C    0.49049   0.99335   0.59165   1.000
    C2271   C    0.34198   0.93941   0.72592   1.000
    C2272   C    0.31624   0.94517   0.70310   1.000
    C2273   C    0.40637   0.88186   0.69105   1.000
    C2274   C    0.38102   0.88740   0.66869   1.000
    C2275   C    0.59230   0.96616   0.30577   1.000
    C2276   C    0.71966   0.89037   0.44652   1.000
    C2277   C    0.70277   0.78908   0.68056   1.000
    C2278   C    0.73753   0.85045   0.52304   1.000
    C2279   C    0.74597   0.83545   0.54461   1.000
    C2280   C    0.82254   0.84479   0.39946   1.000
    C2281   C    0.77511   0.86780   0.41937   1.000
    C2282   C    0.79833   0.84359   0.41896   1.000
    C2283   C    0.79696   0.81932   0.43830   1.000
    C2284   C    0.60157   0.04163   0.29274   1.000
    C2285   C    0.62499   0.99695   0.28742   1.000
    C2286   C    0.62506   0.02205   0.28506   1.000
    C2287   C    0.64857   0.02610   0.27678   1.000
    C2288   C    0.54484   0.98201   0.38611   1.000
    C2289   C    0.58169   0.95039   0.36196   1.000
    C2290   C    0.56470   0.95760   0.38640   1.000
    C2291   C    0.52917   0.98848   0.40915   1.000
    C2292   C    0.51739   0.97801   0.45770   1.000
    C2293   C    0.53274   0.97073   0.43328   1.000
    C2294   C    0.56810   0.93984   0.41057   1.000
    C2295   C    0.55243   0.94626   0.43353   1.000
    C2296   C    0.62901   0.92736   0.47788   1.000
    C2297   C    0.60159   0.93637   0.48724   1.000
    C2298   C    0.71368   0.00806   0.35050   1.000
    C2299   C    0.72170   0.97696   0.39300   1.000
    C2300   C    0.71013   0.00328   0.37631   1.000
    C2301   C    0.70062   0.03250   0.33577   1.000
    C2302   C    0.58192   0.91743   0.32862   1.000
    C2303   C    0.68385   0.05253   0.34661   1.000
    C2304   C    0.69408   0.02362   0.38669   1.000
    C2305   C    0.68119   0.04787   0.37206   1.000
    C2306   C    0.74786   0.78897   0.63876   1.000
    C2307   C    0.72475   0.88117   0.47735   1.000
    C2308   C    0.76523   0.80648   0.58630   1.000
    C2309   C    0.75327   0.86630   0.43680   1.000
    C2310   C    0.77824   0.93031   0.40227   1.000
    C2311   C    0.60319   0.99374   0.29648   1.000
    C2312   C    0.60330   0.96902   0.27054   1.000
    C2313   C    0.57723   0.96610   0.34063   1.000
    C2314   C    0.60000   0.92851   0.36353   1.000
    C2315   C    0.50060   0.00073   0.45664   1.000
    C2316   C    0.52229   0.96133   0.47857   1.000
    C2317   C    0.68444   0.91074   0.45860   1.000
    C2318   C    0.54751   0.95654   0.50396   1.000
    C2319   C    0.73889   0.95984   0.38238   1.000
    C2320   C    0.71343   0.89668   0.41736   1.000
    C2321   C    0.57773   0.94145   0.31492   1.000
    C2322   C    0.65057   0.91093   0.34586   1.000
    C2323   C    0.71098   0.77378   0.67253   1.000
    C2324   C    0.73468   0.84083   0.51485   1.000
    C2325   C    0.74927   0.81471   0.55251   1.000
    C2326   C    0.82446   0.86305   0.38423   1.000
    C2327   C    0.77869   0.81764   0.45366   1.000
    C2328   C    0.58302   0.03939   0.29936   1.000
    C2329   C    0.66710   0.01158   0.27082   1.000
    C2330   C    0.54151   0.99626   0.36801   1.000
    C2331   C    0.51443   0.00759   0.40797   1.000
    C2332   C    0.58302   0.92083   0.41181   1.000
    C2333   C    0.55606   0.93203   0.45151   1.000
    C2334   C    0.63910   0.90893   0.47439   1.000
    C2335   C    0.59165   0.92451   0.49049   1.000
    C2336   C    0.72592   0.99270   0.34198   1.000
    C2337   C    0.70310   0.03548   0.31624   1.000
    C2338   C    0.69105   0.02072   0.40637   1.000
    C2339   C    0.66869   0.06289   0.38102   1.000
    C2340   C    0.11423   0.28384   0.94423   1.000
    C2341   C    0.30656   0.35963   0.80348   1.000
    C2342   C    0.42240   0.46092   0.56944   1.000
    C2343   C    0.36102   0.39955   0.72696   1.000
    C2344   C    0.37603   0.41455   0.70539   1.000
    C2345   C    0.31679   0.40521   0.85054   1.000
    C2346   C    0.31227   0.38220   0.83063   1.000
    C2347   C    0.31089   0.40641   0.83104   1.000
    C2348   C    0.30458   0.43068   0.81170   1.000
    C2349   C    0.18594   0.20837   0.95726   1.000
    C2350   C    0.15936   0.25305   0.96258   1.000
    C2351   C    0.18218   0.22795   0.96494   1.000
    C2352   C    0.20145   0.22390   0.97322   1.000
    C2353   C    0.16297   0.26799   0.86389   1.000
    C2354   C    0.14404   0.29961   0.88804   1.000
    C2355   C    0.15870   0.29240   0.86360   1.000
    C2356   C    0.17681   0.26152   0.84085   1.000
    C2357   C    0.20310   0.27199   0.79230   1.000
    C2358   C    0.18675   0.27927   0.81672   1.000
    C2359   C    0.16851   0.31016   0.83943   1.000
    C2360   C    0.18222   0.30374   0.81647   1.000
    C2361   C    0.28425   0.32264   0.77212   1.000
    C2362   C    0.27520   0.31363   0.76276   1.000
    C2363   C    0.32224   0.24194   0.89950   1.000
    C2364   C    0.34166   0.27304   0.85700   1.000
    C2365   C    0.33972   0.24672   0.87369   1.000
    C2366   C    0.31889   0.21750   0.91423   1.000
    C2367   C    0.07796   0.33257   0.92138   1.000
    C2368   C    0.33299   0.19747   0.90339   1.000
    C2369   C    0.35438   0.22638   0.86331   1.000
    C2370   C    0.35111   0.20213   0.87794   1.000
    C2371   C    0.42559   0.46103   0.61124   1.000
    C2372   C    0.33327   0.36883   0.77265   1.000
    C2373   C    0.40801   0.44352   0.66370   1.000
    C2374   C    0.30637   0.38370   0.81320   1.000
    C2375   C    0.36082   0.31969   0.84773   1.000
    C2376   C    0.14341   0.25626   0.95352   1.000
    C2377   C    0.09285   0.28098   0.97946   1.000
    C2378   C    0.13396   0.28390   0.90937   1.000
    C2379   C    0.14205   0.32149   0.88647   1.000
    C2380   C    0.20797   0.24927   0.79336   1.000
    C2381   C    0.21218   0.28867   0.77143   1.000
    C2382   C    0.30379   0.33926   0.79140   1.000
    C2383   C    0.25801   0.29346   0.74604   1.000
    C2384   C    0.33112   0.29016   0.86762   1.000
    C2385   C    0.27746   0.35332   0.83264   1.000
    C2386   C    0.08410   0.30855   0.93508   1.000
    C2387   C    0.15737   0.33907   0.90414   1.000
    C2388   C    0.40729   0.47622   0.57747   1.000
    C2389   C    0.34037   0.40917   0.73515   1.000
    C2390   C    0.36649   0.43529   0.69749   1.000
    C2391   C    0.32174   0.38695   0.86577   1.000
    C2392   C    0.29999   0.43236   0.79634   1.000
    C2393   C    0.17176   0.21061   0.95064   1.000
    C2394   C    0.19950   0.23842   0.97918   1.000
    C2395   C    0.15579   0.25374   0.88199   1.000
    C2396   C    0.17998   0.24241   0.84203   1.000
    C2397   C    0.16567   0.32917   0.83819   1.000
    C2398   C    0.18961   0.31797   0.79849   1.000
    C2399   C    0.27242   0.34107   0.77561   1.000
    C2400   C    0.25665   0.32549   0.75951   1.000
    C2401   C    0.31059   0.25730   0.90802   1.000
    C2402   C    0.30483   0.21452   0.93376   1.000
    C2403   C    0.36814   0.22928   0.84363   1.000
    C2404   C    0.36260   0.18711   0.86898   1.000
    C2405   C    0.28384   0.11423   0.65770   1.000
    C2406   C    0.35963   0.30656   0.53034   1.000
    C2407   C    0.46092   0.42240   0.54723   1.000
    C2408   C    0.39955   0.36102   0.51247   1.000
    C2409   C    0.41455   0.37603   0.50403   1.000
    C2410   C    0.40521   0.31679   0.42746   1.000
    C2411   C    0.38220   0.31227   0.47489   1.000
    C2412   C    0.40641   0.31089   0.45167   1.000
    C2413   C    0.43068   0.30458   0.45304   1.000
    C2414   C    0.20837   0.18594   0.64843   1.000
    C2415   C    0.25305   0.15936   0.62501   1.000
    C2416   C    0.22795   0.18218   0.62494   1.000
    C2417   C    0.22390   0.20145   0.60143   1.000
    C2418   C    0.26799   0.16297   0.70516   1.000
    C2419   C    0.29961   0.14404   0.66831   1.000
    C2420   C    0.29240   0.15870   0.68530   1.000
    C2421   C    0.26152   0.17681   0.72083   1.000
    C2422   C    0.27199   0.20310   0.73261   1.000
    C2423   C    0.27927   0.18675   0.71726   1.000
    C2424   C    0.31016   0.16851   0.68190   1.000
    C2425   C    0.30374   0.18222   0.69757   1.000
    C2426   C    0.32264   0.28425   0.62099   1.000
    C2427   C    0.31363   0.27520   0.64841   1.000
    C2428   C    0.24194   0.32224   0.53632   1.000
    C2429   C    0.27304   0.34166   0.52830   1.000
    C2430   C    0.24672   0.33972   0.53987   1.000
    C2431   C    0.21750   0.31889   0.54938   1.000
    C2432   C    0.33257   0.07796   0.66808   1.000
    C2433   C    0.19747   0.33299   0.56615   1.000
    C2434   C    0.22638   0.35438   0.55592   1.000
    C2435   C    0.20213   0.35111   0.56881   1.000
    C2436   C    0.46103   0.42559   0.50214   1.000
    C2437   C    0.36883   0.33327   0.52525   1.000
    C2438   C    0.44352   0.40801   0.48477   1.000
    C2439   C    0.38370   0.30637   0.49673   1.000
    C2440   C    0.31969   0.36082   0.47176   1.000
    C2441   C    0.25626   0.14341   0.64681   1.000
    C2442   C    0.28098   0.09285   0.64670   1.000
    C2443   C    0.28390   0.13396   0.67277   1.000
    C2444   C    0.32149   0.14205   0.65000   1.000
    C2445   C    0.24927   0.20797   0.74940   1.000
    C2446   C    0.28867   0.21218   0.72771   1.000
    C2447   C    0.33926   0.30379   0.56556   1.000
    C2448   C    0.29346   0.25801   0.70249   1.000
    C2449   C    0.29016   0.33112   0.51111   1.000
    C2450   C    0.35332   0.27746   0.53657   1.000
    C2451   C    0.30855   0.08410   0.67227   1.000
    C2452   C    0.33907   0.15737   0.59943   1.000
    C2453   C    0.47622   0.40729   0.53902   1.000
    C2454   C    0.40917   0.34037   0.51532   1.000
    C2455   C    0.43529   0.36649   0.50073   1.000
    C2456   C    0.38695   0.32174   0.42554   1.000
    C2457   C    0.43236   0.29999   0.47131   1.000
    C2458   C    0.21061   0.17176   0.66698   1.000
    C2459   C    0.23842   0.19950   0.58290   1.000
    C2460   C    0.25374   0.15579   0.70849   1.000
    C2461   C    0.24241   0.17998   0.73557   1.000
    C2462   C    0.32917   0.16567   0.66698   1.000
    C2463   C    0.31797   0.18961   0.69394   1.000
    C2464   C    0.34107   0.27242   0.61090   1.000
    C2465   C    0.32549   0.25665   0.65835   1.000
    C2466   C    0.25730   0.31059   0.52408   1.000
    C2467   C    0.21452   0.30483   0.54690   1.000
    C2468   C    0.22928   0.36814   0.55895   1.000
    C2469   C    0.18711   0.36260   0.58131   1.000
    C2470   C    0.65770   0.94423   0.28384   1.000
    C2471   C    0.53034   0.80348   0.35963   1.000
    C2472   C    0.54723   0.56944   0.46092   1.000
    C2473   C    0.51247   0.72696   0.39955   1.000
    C2474   C    0.50403   0.70539   0.41455   1.000
    C2475   C    0.42746   0.85054   0.40521   1.000
    C2476   C    0.47489   0.83063   0.38220   1.000
    C2477   C    0.45167   0.83104   0.40641   1.000
    C2478   C    0.45304   0.81170   0.43068   1.000
    C2479   C    0.64843   0.95726   0.20837   1.000
    C2480   C    0.62501   0.96258   0.25305   1.000
    C2481   C    0.62494   0.96494   0.22795   1.000
    C2482   C    0.60143   0.97322   0.22390   1.000
    C2483   C    0.70516   0.86389   0.26799   1.000
    C2484   C    0.66831   0.88804   0.29961   1.000
    C2485   C    0.68530   0.86360   0.29240   1.000
    C2486   C    0.72083   0.84085   0.26152   1.000
    C2487   C    0.73261   0.79230   0.27199   1.000
    C2488   C    0.71726   0.81672   0.27927   1.000
    C2489   C    0.68190   0.83943   0.31016   1.000
    C2490   C    0.69757   0.81647   0.30374   1.000
    C2491   C    0.62099   0.77212   0.32264   1.000
    C2492   C    0.64841   0.76276   0.31363   1.000
    C2493   C    0.53632   0.89950   0.24194   1.000
    C2494   C    0.52830   0.85700   0.27304   1.000
    C2495   C    0.53987   0.87369   0.24672   1.000
    C2496   C    0.54938   0.91423   0.21750   1.000
    C2497   C    0.66808   0.92138   0.33257   1.000
    C2498   C    0.56615   0.90339   0.19747   1.000
    C2499   C    0.55592   0.86331   0.22638   1.000
    C2500   C    0.56881   0.87794   0.20213   1.000
    C2501   C    0.50214   0.61124   0.46103   1.000
    C2502   C    0.52525   0.77265   0.36883   1.000
    C2503   C    0.48477   0.66370   0.44352   1.000
    C2504   C    0.49673   0.81320   0.38370   1.000
    C2505   C    0.47176   0.84773   0.31969   1.000
    C2506   C    0.64681   0.95352   0.25626   1.000
    C2507   C    0.64670   0.97946   0.28098   1.000
    C2508   C    0.67277   0.90937   0.28390   1.000
    C2509   C    0.65000   0.88647   0.32149   1.000
    C2510   C    0.74940   0.79336   0.24927   1.000
    C2511   C    0.72771   0.77143   0.28867   1.000
    C2512   C    0.56556   0.79140   0.33926   1.000
    C2513   C    0.70249   0.74604   0.29346   1.000
    C2514   C    0.51111   0.86762   0.29016   1.000
    C2515   C    0.53657   0.83264   0.35332   1.000
    C2516   C    0.67227   0.93508   0.30855   1.000
    C2517   C    0.59943   0.90414   0.33907   1.000
    C2518   C    0.53902   0.57747   0.47622   1.000
    C2519   C    0.51532   0.73515   0.40917   1.000
    C2520   C    0.50073   0.69749   0.43529   1.000
    C2521   C    0.42554   0.86577   0.38695   1.000
    C2522   C    0.47131   0.79634   0.43236   1.000
    C2523   C    0.66698   0.95064   0.21061   1.000
    C2524   C    0.58290   0.97918   0.23842   1.000
    C2525   C    0.70849   0.88199   0.25374   1.000
    C2526   C    0.73557   0.84203   0.24241   1.000
    C2527   C    0.66698   0.83819   0.32917   1.000
    C2528   C    0.69394   0.79849   0.31797   1.000
    C2529   C    0.61090   0.77561   0.34107   1.000
    C2530   C    0.65835   0.75951   0.32549   1.000
    C2531   C    0.52408   0.90802   0.25730   1.000
    C2532   C    0.54690   0.93376   0.21452   1.000
    C2533   C    0.55895   0.84363   0.22928   1.000
    C2534   C    0.58131   0.86898   0.18711   1.000
    C2535   C    0.94423   0.65770   0.11423   1.000
    C2536   C    0.80348   0.53034   0.30656   1.000
    C2537   C    0.56944   0.54723   0.42240   1.000
    C2538   C    0.72696   0.51247   0.36102   1.000
    C2539   C    0.70539   0.50403   0.37603   1.000
    C2540   C    0.85054   0.42746   0.31679   1.000
    C2541   C    0.83063   0.47489   0.31227   1.000
    C2542   C    0.83104   0.45167   0.31089   1.000
    C2543   C    0.81170   0.45304   0.30458   1.000
    C2544   C    0.95726   0.64843   0.18594   1.000
    C2545   C    0.96258   0.62501   0.15936   1.000
    C2546   C    0.96494   0.62494   0.18218   1.000
    C2547   C    0.97322   0.60143   0.20145   1.000
    C2548   C    0.86389   0.70516   0.16297   1.000
    C2549   C    0.88804   0.66831   0.14404   1.000
    C2550   C    0.86360   0.68530   0.15870   1.000
    C2551   C    0.84085   0.72083   0.17681   1.000
    C2552   C    0.79230   0.73261   0.20310   1.000
    C2553   C    0.81672   0.71726   0.18675   1.000
    C2554   C    0.83943   0.68190   0.16851   1.000
    C2555   C    0.81647   0.69757   0.18222   1.000
    C2556   C    0.77212   0.62099   0.28425   1.000
    C2557   C    0.76276   0.64841   0.27520   1.000
    C2558   C    0.89950   0.53632   0.32224   1.000
    C2559   C    0.85700   0.52830   0.34166   1.000
    C2560   C    0.87369   0.53987   0.33972   1.000
    C2561   C    0.91423   0.54938   0.31889   1.000
    C2562   C    0.92138   0.66808   0.07796   1.000
    C2563   C    0.90339   0.56615   0.33299   1.000
    C2564   C    0.86331   0.55592   0.35438   1.000
    C2565   C    0.87794   0.56881   0.35111   1.000
    C2566   C    0.61124   0.50214   0.42559   1.000
    C2567   C    0.77265   0.52525   0.33327   1.000
    C2568   C    0.66370   0.48477   0.40801   1.000
    C2569   C    0.81320   0.49673   0.30637   1.000
    C2570   C    0.84773   0.47176   0.36082   1.000
    C2571   C    0.95352   0.64681   0.14341   1.000
    C2572   C    0.97946   0.64670   0.09285   1.000
    C2573   C    0.90937   0.67277   0.13396   1.000
    C2574   C    0.88647   0.65000   0.14205   1.000
    C2575   C    0.79336   0.74940   0.20797   1.000
    C2576   C    0.77143   0.72771   0.21218   1.000
    C2577   C    0.79140   0.56556   0.30379   1.000
    C2578   C    0.74604   0.70249   0.25801   1.000
    C2579   C    0.86762   0.51111   0.33112   1.000
    C2580   C    0.83264   0.53657   0.27746   1.000
    C2581   C    0.93508   0.67227   0.08410   1.000
    C2582   C    0.90414   0.59943   0.15737   1.000
    C2583   C    0.57747   0.53902   0.40729   1.000
    C2584   C    0.73515   0.51532   0.34037   1.000
    C2585   C    0.69749   0.50073   0.36649   1.000
    C2586   C    0.86577   0.42554   0.32174   1.000
    C2587   C    0.79634   0.47131   0.29999   1.000
    C2588   C    0.95064   0.66698   0.17176   1.000
    C2589   C    0.97918   0.58290   0.19950   1.000
    C2590   C    0.88199   0.70849   0.15579   1.000
    C2591   C    0.84203   0.73557   0.17998   1.000
    C2592   C    0.83819   0.66698   0.16567   1.000
    C2593   C    0.79849   0.69394   0.18961   1.000
    C2594   C    0.77561   0.61090   0.27242   1.000
    C2595   C    0.75951   0.65835   0.25665   1.000
    C2596   C    0.90802   0.52408   0.31059   1.000
    C2597   C    0.93376   0.54690   0.30483   1.000
    C2598   C    0.84363   0.55895   0.36814   1.000
    C2599   C    0.86898   0.58131   0.36260   1.000
    C2600   C    0.65770   0.11423   0.94423   1.000
    C2601   C    0.53034   0.30656   0.80348   1.000
    C2602   C    0.54723   0.42240   0.56944   1.000
    C2603   C    0.51247   0.36102   0.72696   1.000
    C2604   C    0.50403   0.37603   0.70539   1.000
    C2605   C    0.42746   0.31679   0.85054   1.000
    C2606   C    0.47489   0.31227   0.83063   1.000
    C2607   C    0.45167   0.31089   0.83104   1.000
    C2608   C    0.45304   0.30458   0.81170   1.000
    C2609   C    0.64843   0.18594   0.95726   1.000
    C2610   C    0.62501   0.15936   0.96258   1.000
    C2611   C    0.62494   0.18218   0.96494   1.000
    C2612   C    0.60143   0.20145   0.97322   1.000
    C2613   C    0.70516   0.16297   0.86389   1.000
    C2614   C    0.66831   0.14404   0.88804   1.000
    C2615   C    0.68530   0.15870   0.86360   1.000
    C2616   C    0.72083   0.17681   0.84085   1.000
    C2617   C    0.73261   0.20310   0.79230   1.000
    C2618   C    0.71726   0.18675   0.81672   1.000
    C2619   C    0.68190   0.16851   0.83943   1.000
    C2620   C    0.69757   0.18222   0.81647   1.000
    C2621   C    0.62099   0.28425   0.77212   1.000
    C2622   C    0.64841   0.27520   0.76276   1.000
    C2623   C    0.53632   0.32224   0.89950   1.000
    C2624   C    0.52830   0.34166   0.85700   1.000
    C2625   C    0.53987   0.33972   0.87369   1.000
    C2626   C    0.54938   0.31889   0.91423   1.000
    C2627   C    0.66808   0.07796   0.92138   1.000
    C2628   C    0.56615   0.33299   0.90339   1.000
    C2629   C    0.55592   0.35438   0.86331   1.000
    C2630   C    0.56881   0.35111   0.87794   1.000
    C2631   C    0.50214   0.42559   0.61124   1.000
    C2632   C    0.52525   0.33327   0.77265   1.000
    C2633   C    0.48477   0.40801   0.66370   1.000
    C2634   C    0.49673   0.30637   0.81320   1.000
    C2635   C    0.47176   0.36082   0.84773   1.000
    C2636   C    0.64681   0.14341   0.95352   1.000
    C2637   C    0.64670   0.09285   0.97946   1.000
    C2638   C    0.67277   0.13396   0.90937   1.000
    C2639   C    0.65000   0.14205   0.88647   1.000
    C2640   C    0.74940   0.20797   0.79336   1.000
    C2641   C    0.72771   0.21218   0.77143   1.000
    C2642   C    0.56556   0.30379   0.79140   1.000
    C2643   C    0.70249   0.25801   0.74604   1.000
    C2644   C    0.51111   0.33112   0.86762   1.000
    C2645   C    0.53657   0.27746   0.83264   1.000
    C2646   C    0.67227   0.08410   0.93508   1.000
    C2647   C    0.59943   0.15737   0.90414   1.000
    C2648   C    0.53902   0.40729   0.57747   1.000
    C2649   C    0.51532   0.34037   0.73515   1.000
    C2650   C    0.50073   0.36649   0.69749   1.000
    C2651   C    0.42554   0.32174   0.86577   1.000
    C2652   C    0.47131   0.29999   0.79634   1.000
    C2653   C    0.66698   0.17176   0.95064   1.000
    C2654   C    0.58290   0.19950   0.97918   1.000
    C2655   C    0.70849   0.15579   0.88199   1.000
    C2656   C    0.73557   0.17998   0.84203   1.000
    C2657   C    0.66698   0.16567   0.83819   1.000
    C2658   C    0.69394   0.18961   0.79849   1.000
    C2659   C    0.61090   0.27242   0.77561   1.000
    C2660   C    0.65835   0.25665   0.75951   1.000
    C2661   C    0.52408   0.31059   0.90802   1.000
    C2662   C    0.54690   0.30483   0.93376   1.000
    C2663   C    0.55895   0.36814   0.84363   1.000
    C2664   C    0.58131   0.36260   0.86898   1.000
    C2665   C    0.94423   0.28384   0.65770   1.000
    C2666   C    0.80348   0.35963   0.53034   1.000
    C2667   C    0.56944   0.46092   0.54723   1.000
    C2668   C    0.72696   0.39955   0.51247   1.000
    C2669   C    0.70539   0.41455   0.50403   1.000
    C2670   C    0.85054   0.40521   0.42746   1.000
    C2671   C    0.83063   0.38220   0.47489   1.000
    C2672   C    0.83104   0.40641   0.45167   1.000
    C2673   C    0.81170   0.43068   0.45304   1.000
    C2674   C    0.95726   0.20837   0.64843   1.000
    C2675   C    0.96258   0.25305   0.62501   1.000
    C2676   C    0.96494   0.22795   0.62494   1.000
    C2677   C    0.97322   0.22390   0.60143   1.000
    C2678   C    0.86389   0.26799   0.70516   1.000
    C2679   C    0.88804   0.29961   0.66831   1.000
    C2680   C    0.86360   0.29240   0.68530   1.000
    C2681   C    0.84085   0.26152   0.72083   1.000
    C2682   C    0.79230   0.27199   0.73261   1.000
    C2683   C    0.81672   0.27927   0.71726   1.000
    C2684   C    0.83943   0.31016   0.68190   1.000
    C2685   C    0.81647   0.30374   0.69757   1.000
    C2686   C    0.77212   0.32264   0.62099   1.000
    C2687   C    0.76276   0.31363   0.64841   1.000
    C2688   C    0.89950   0.24194   0.53632   1.000
    C2689   C    0.85700   0.27304   0.52830   1.000
    C2690   C    0.87369   0.24672   0.53987   1.000
    C2691   C    0.91423   0.21750   0.54938   1.000
    C2692   C    0.92138   0.33257   0.66808   1.000
    C2693   C    0.90339   0.19747   0.56615   1.000
    C2694   C    0.86331   0.22638   0.55592   1.000
    C2695   C    0.87794   0.20213   0.56881   1.000
    C2696   C    0.61124   0.46103   0.50214   1.000
    C2697   C    0.77265   0.36883   0.52525   1.000
    C2698   C    0.66370   0.44352   0.48477   1.000
    C2699   C    0.81320   0.38370   0.49673   1.000
    C2700   C    0.84773   0.31969   0.47176   1.000
    C2701   C    0.95352   0.25626   0.64681   1.000
    C2702   C    0.97946   0.28098   0.64670   1.000
    C2703   C    0.90937   0.28390   0.67277   1.000
    C2704   C    0.88647   0.32149   0.65000   1.000
    C2705   C    0.79336   0.24927   0.74940   1.000
    C2706   C    0.77143   0.28867   0.72771   1.000
    C2707   C    0.79140   0.33926   0.56556   1.000
    C2708   C    0.74604   0.29346   0.70249   1.000
    C2709   C    0.86762   0.29016   0.51111   1.000
    C2710   C    0.83264   0.35332   0.53657   1.000
    C2711   C    0.93508   0.30855   0.67227   1.000
    C2712   C    0.90414   0.33907   0.59943   1.000
    C2713   C    0.57747   0.47622   0.53902   1.000
    C2714   C    0.73515   0.40917   0.51532   1.000
    C2715   C    0.69749   0.43529   0.50073   1.000
    C2716   C    0.86577   0.38695   0.42554   1.000
    C2717   C    0.79634   0.43236   0.47131   1.000
    C2718   C    0.95064   0.21061   0.66698   1.000
    C2719   C    0.97918   0.23842   0.58290   1.000
    C2720   C    0.88199   0.25374   0.70849   1.000
    C2721   C    0.84203   0.24241   0.73557   1.000
    C2722   C    0.83819   0.32917   0.66698   1.000
    C2723   C    0.79849   0.31797   0.69394   1.000
    C2724   C    0.77561   0.34107   0.61090   1.000
    C2725   C    0.75951   0.32549   0.65835   1.000
    C2726   C    0.90802   0.25730   0.52408   1.000
    C2727   C    0.93376   0.21452   0.54690   1.000
    C2728   C    0.84363   0.22928   0.55895   1.000
    C2729   C    0.86898   0.18711   0.58131   1.000
    C2730   C    0.11423   0.65770   0.28384   1.000
    C2731   C    0.30656   0.53034   0.35963   1.000
    C2732   C    0.42240   0.54723   0.46092   1.000
    C2733   C    0.36102   0.51247   0.39955   1.000
    C2734   C    0.37603   0.50403   0.41455   1.000
    C2735   C    0.31679   0.42746   0.40521   1.000
    C2736   C    0.31227   0.47489   0.38220   1.000
    C2737   C    0.31089   0.45167   0.40641   1.000
    C2738   C    0.30458   0.45304   0.43068   1.000
    C2739   C    0.18594   0.64843   0.20837   1.000
    C2740   C    0.15936   0.62501   0.25305   1.000
    C2741   C    0.18218   0.62494   0.22795   1.000
    C2742   C    0.20145   0.60143   0.22390   1.000
    C2743   C    0.16297   0.70516   0.26799   1.000
    C2744   C    0.14404   0.66831   0.29961   1.000
    C2745   C    0.15870   0.68530   0.29240   1.000
    C2746   C    0.17681   0.72083   0.26152   1.000
    C2747   C    0.20310   0.73261   0.27199   1.000
    C2748   C    0.18675   0.71726   0.27927   1.000
    C2749   C    0.16851   0.68190   0.31016   1.000
    C2750   C    0.18222   0.69757   0.30374   1.000
    C2751   C    0.28425   0.62099   0.32264   1.000
    C2752   C    0.27520   0.64841   0.31363   1.000
    C2753   C    0.32224   0.53632   0.24194   1.000
    C2754   C    0.34166   0.52830   0.27304   1.000
    C2755   C    0.33972   0.53987   0.24672   1.000
    C2756   C    0.31889   0.54938   0.21750   1.000
    C2757   C    0.07796   0.66808   0.33257   1.000
    C2758   C    0.33299   0.56615   0.19747   1.000
    C2759   C    0.35438   0.55592   0.22638   1.000
    C2760   C    0.35111   0.56881   0.20213   1.000
    C2761   C    0.42559   0.50214   0.46103   1.000
    C2762   C    0.33327   0.52525   0.36883   1.000
    C2763   C    0.40801   0.48477   0.44352   1.000
    C2764   C    0.30637   0.49673   0.38370   1.000
    C2765   C    0.36082   0.47176   0.31969   1.000
    C2766   C    0.14341   0.64681   0.25626   1.000
    C2767   C    0.09285   0.64670   0.28098   1.000
    C2768   C    0.13396   0.67277   0.28390   1.000
    C2769   C    0.14205   0.65000   0.32149   1.000
    C2770   C    0.20797   0.74940   0.24927   1.000
    C2771   C    0.21218   0.72771   0.28867   1.000
    C2772   C    0.30379   0.56556   0.33926   1.000
    C2773   C    0.25801   0.70249   0.29346   1.000
    C2774   C    0.33112   0.51111   0.29016   1.000
    C2775   C    0.27746   0.53657   0.35332   1.000
    C2776   C    0.08410   0.67227   0.30855   1.000
    C2777   C    0.15737   0.59943   0.33907   1.000
    C2778   C    0.40729   0.53902   0.47622   1.000
    C2779   C    0.34037   0.51532   0.40917   1.000
    C2780   C    0.36649   0.50073   0.43529   1.000
    C2781   C    0.32174   0.42554   0.38695   1.000
    C2782   C    0.29999   0.47131   0.43236   1.000
    C2783   C    0.17176   0.66698   0.21061   1.000
    C2784   C    0.19950   0.58290   0.23842   1.000
    C2785   C    0.15579   0.70849   0.25374   1.000
    C2786   C    0.17998   0.73557   0.24241   1.000
    C2787   C    0.16567   0.66698   0.32917   1.000
    C2788   C    0.18961   0.69394   0.31797   1.000
    C2789   C    0.27242   0.61090   0.34107   1.000
    C2790   C    0.25665   0.65835   0.32549   1.000
    C2791   C    0.31059   0.52408   0.25730   1.000
    C2792   C    0.30483   0.54690   0.21452   1.000
    C2793   C    0.36814   0.55895   0.22928   1.000
    C2794   C    0.36260   0.58131   0.18711   1.000
    C2795   C    0.28384   0.94423   0.11423   1.000
    C2796   C    0.35963   0.80348   0.30656   1.000
    C2797   C    0.46092   0.56944   0.42240   1.000
    C2798   C    0.39955   0.72696   0.36102   1.000
    C2799   C    0.41455   0.70539   0.37603   1.000
    C2800   C    0.40521   0.85054   0.31679   1.000
    C2801   C    0.38220   0.83063   0.31227   1.000
    C2802   C    0.40641   0.83104   0.31089   1.000
    C2803   C    0.43068   0.81170   0.30458   1.000
    C2804   C    0.20837   0.95726   0.18594   1.000
    C2805   C    0.25305   0.96258   0.15936   1.000
    C2806   C    0.22795   0.96494   0.18218   1.000
    C2807   C    0.22390   0.97322   0.20145   1.000
    C2808   C    0.26799   0.86389   0.16297   1.000
    C2809   C    0.29961   0.88804   0.14404   1.000
    C2810   C    0.29240   0.86360   0.15870   1.000
    C2811   C    0.26152   0.84085   0.17681   1.000
    C2812   C    0.27199   0.79230   0.20310   1.000
    C2813   C    0.27927   0.81672   0.18675   1.000
    C2814   C    0.31016   0.83943   0.16851   1.000
    C2815   C    0.30374   0.81647   0.18222   1.000
    C2816   C    0.32264   0.77212   0.28425   1.000
    C2817   C    0.31363   0.76276   0.27520   1.000
    C2818   C    0.24194   0.89950   0.32224   1.000
    C2819   C    0.27304   0.85700   0.34166   1.000
    C2820   C    0.24672   0.87369   0.33972   1.000
    C2821   C    0.21750   0.91423   0.31889   1.000
    C2822   C    0.33257   0.92138   0.07796   1.000
    C2823   C    0.19747   0.90339   0.33299   1.000
    C2824   C    0.22638   0.86331   0.35438   1.000
    C2825   C    0.20213   0.87794   0.35111   1.000
    C2826   C    0.46103   0.61124   0.42559   1.000
    C2827   C    0.36883   0.77265   0.33327   1.000
    C2828   C    0.44352   0.66370   0.40801   1.000
    C2829   C    0.38370   0.81320   0.30637   1.000
    C2830   C    0.31969   0.84773   0.36082   1.000
    C2831   C    0.25626   0.95352   0.14341   1.000
    C2832   C    0.28098   0.97946   0.09285   1.000
    C2833   C    0.28390   0.90937   0.13396   1.000
    C2834   C    0.32149   0.88647   0.14205   1.000
    C2835   C    0.24927   0.79336   0.20797   1.000
    C2836   C    0.28867   0.77143   0.21218   1.000
    C2837   C    0.33926   0.79140   0.30379   1.000
    C2838   C    0.29346   0.74604   0.25801   1.000
    C2839   C    0.29016   0.86762   0.33112   1.000
    C2840   C    0.35332   0.83264   0.27746   1.000
    C2841   C    0.30855   0.93508   0.08410   1.000
    C2842   C    0.33907   0.90414   0.15737   1.000
    C2843   C    0.47622   0.57747   0.40729   1.000
    C2844   C    0.40917   0.73515   0.34037   1.000
    C2845   C    0.43529   0.69749   0.36649   1.000
    C2846   C    0.38695   0.86577   0.32174   1.000
    C2847   C    0.43236   0.79634   0.29999   1.000
    C2848   C    0.21061   0.95064   0.17176   1.000
    C2849   C    0.23842   0.97918   0.19950   1.000
    C2850   C    0.25374   0.88199   0.15579   1.000
    C2851   C    0.24241   0.84203   0.17998   1.000
    C2852   C    0.32917   0.83819   0.16567   1.000
    C2853   C    0.31797   0.79849   0.18961   1.000
    C2854   C    0.34107   0.77561   0.27242   1.000
    C2855   C    0.32549   0.75951   0.25665   1.000
    C2856   C    0.25730   0.90802   0.31059   1.000
    C2857   C    0.21452   0.93376   0.30483   1.000
    C2858   C    0.22928   0.84363   0.36814   1.000
    C2859   C    0.18711   0.86898   0.36260   1.000
    C2860   C    0.28384   0.65770   0.94423   1.000
    C2861   C    0.35963   0.53034   0.80348   1.000
    C2862   C    0.46092   0.54723   0.56944   1.000
    C2863   C    0.39955   0.51247   0.72696   1.000
    C2864   C    0.41455   0.50403   0.70539   1.000
    C2865   C    0.40521   0.42746   0.85054   1.000
    C2866   C    0.38220   0.47489   0.83063   1.000
    C2867   C    0.40641   0.45167   0.83104   1.000
    C2868   C    0.43068   0.45304   0.81170   1.000
    C2869   C    0.20837   0.64843   0.95726   1.000
    C2870   C    0.25305   0.62501   0.96258   1.000
    C2871   C    0.22795   0.62494   0.96494   1.000
    C2872   C    0.22390   0.60143   0.97322   1.000
    C2873   C    0.26799   0.70516   0.86389   1.000
    C2874   C    0.29961   0.66831   0.88804   1.000
    C2875   C    0.29240   0.68530   0.86360   1.000
    C2876   C    0.26152   0.72083   0.84085   1.000
    C2877   C    0.27199   0.73261   0.79230   1.000
    C2878   C    0.27927   0.71726   0.81672   1.000
    C2879   C    0.31016   0.68190   0.83943   1.000
    C2880   C    0.30374   0.69757   0.81647   1.000
    C2881   C    0.32264   0.62099   0.77212   1.000
    C2882   C    0.31363   0.64841   0.76276   1.000
    C2883   C    0.24194   0.53632   0.89950   1.000
    C2884   C    0.27304   0.52830   0.85700   1.000
    C2885   C    0.24672   0.53987   0.87369   1.000
    C2886   C    0.21750   0.54938   0.91423   1.000
    C2887   C    0.33257   0.66808   0.92138   1.000
    C2888   C    0.19747   0.56615   0.90339   1.000
    C2889   C    0.22638   0.55592   0.86331   1.000
    C2890   C    0.20213   0.56881   0.87794   1.000
    C2891   C    0.46103   0.50214   0.61124   1.000
    C2892   C    0.36883   0.52525   0.77265   1.000
    C2893   C    0.44352   0.48477   0.66370   1.000
    C2894   C    0.38370   0.49673   0.81320   1.000
    C2895   C    0.31969   0.47176   0.84773   1.000
    C2896   C    0.25626   0.64681   0.95352   1.000
    C2897   C    0.28098   0.64670   0.97946   1.000
    C2898   C    0.28390   0.67277   0.90937   1.000
    C2899   C    0.32149   0.65000   0.88647   1.000
    C2900   C    0.24927   0.74940   0.79336   1.000
    C2901   C    0.28867   0.72771   0.77143   1.000
    C2902   C    0.33926   0.56556   0.79140   1.000
    C2903   C    0.29346   0.70249   0.74604   1.000
    C2904   C    0.29016   0.51111   0.86762   1.000
    C2905   C    0.35332   0.53657   0.83264   1.000
    C2906   C    0.30855   0.67227   0.93508   1.000
    C2907   C    0.33907   0.59943   0.90414   1.000
    C2908   C    0.47622   0.53902   0.57747   1.000
    C2909   C    0.40917   0.51532   0.73515   1.000
    C2910   C    0.43529   0.50073   0.69749   1.000
    C2911   C    0.38695   0.42554   0.86577   1.000
    C2912   C    0.43236   0.47131   0.79634   1.000
    C2913   C    0.21061   0.66698   0.95064   1.000
    C2914   C    0.23842   0.58290   0.97918   1.000
    C2915   C    0.25374   0.70849   0.88199   1.000
    C2916   C    0.24241   0.73557   0.84203   1.000
    C2917   C    0.32917   0.66698   0.83819   1.000
    C2918   C    0.31797   0.69394   0.79849   1.000
    C2919   C    0.34107   0.61090   0.77561   1.000
    C2920   C    0.32549   0.65835   0.75951   1.000
    C2921   C    0.25730   0.52408   0.90802   1.000
    C2922   C    0.21452   0.54690   0.93376   1.000
    C2923   C    0.22928   0.55895   0.84363   1.000
    C2924   C    0.18711   0.58131   0.86898   1.000
    C2925   C    0.11423   0.94423   0.65770   1.000
    C2926   C    0.30656   0.80348   0.53034   1.000
    C2927   C    0.42240   0.56944   0.54723   1.000
    C2928   C    0.36102   0.72696   0.51247   1.000
    C2929   C    0.37603   0.70539   0.50403   1.000
    C2930   C    0.31679   0.85054   0.42746   1.000
    C2931   C    0.31227   0.83063   0.47489   1.000
    C2932   C    0.31089   0.83104   0.45167   1.000
    C2933   C    0.30458   0.81170   0.45304   1.000
    C2934   C    0.18594   0.95726   0.64843   1.000
    C2935   C    0.15936   0.96258   0.62501   1.000
    C2936   C    0.18218   0.96494   0.62494   1.000
    C2937   C    0.20145   0.97322   0.60143   1.000
    C2938   C    0.16297   0.86389   0.70516   1.000
    C2939   C    0.14404   0.88804   0.66831   1.000
    C2940   C    0.15870   0.86360   0.68530   1.000
    C2941   C    0.17681   0.84085   0.72083   1.000
    C2942   C    0.20310   0.79230   0.73261   1.000
    C2943   C    0.18675   0.81672   0.71726   1.000
    C2944   C    0.16851   0.83943   0.68190   1.000
    C2945   C    0.18222   0.81647   0.69757   1.000
    C2946   C    0.28425   0.77212   0.62099   1.000
    C2947   C    0.27520   0.76276   0.64841   1.000
    C2948   C    0.32224   0.89950   0.53632   1.000
    C2949   C    0.34166   0.85700   0.52830   1.000
    C2950   C    0.33972   0.87369   0.53987   1.000
    C2951   C    0.31889   0.91423   0.54938   1.000
    C2952   C    0.07796   0.92138   0.66808   1.000
    C2953   C    0.33299   0.90339   0.56615   1.000
    C2954   C    0.35438   0.86331   0.55592   1.000
    C2955   C    0.35111   0.87794   0.56881   1.000
    C2956   C    0.42559   0.61124   0.50214   1.000
    C2957   C    0.33327   0.77265   0.52525   1.000
    C2958   C    0.40801   0.66370   0.48477   1.000
    C2959   C    0.30637   0.81320   0.49673   1.000
    C2960   C    0.36082   0.84773   0.47176   1.000
    C2961   C    0.14341   0.95352   0.64681   1.000
    C2962   C    0.09285   0.97946   0.64670   1.000
    C2963   C    0.13396   0.90937   0.67277   1.000
    C2964   C    0.14205   0.88647   0.65000   1.000
    C2965   C    0.20797   0.79336   0.74940   1.000
    C2966   C    0.21218   0.77143   0.72771   1.000
    C2967   C    0.30379   0.79140   0.56556   1.000
    C2968   C    0.25801   0.74604   0.70249   1.000
    C2969   C    0.33112   0.86762   0.51111   1.000
    C2970   C    0.27746   0.83264   0.53657   1.000
    C2971   C    0.08410   0.93508   0.67227   1.000
    C2972   C    0.15737   0.90414   0.59943   1.000
    C2973   C    0.40729   0.57747   0.53902   1.000
    C2974   C    0.34037   0.73515   0.51532   1.000
    C2975   C    0.36649   0.69749   0.50073   1.000
    C2976   C    0.32174   0.86577   0.42554   1.000
    C2977   C    0.29999   0.79634   0.47131   1.000
    C2978   C    0.17176   0.95064   0.66698   1.000
    C2979   C    0.19950   0.97918   0.58290   1.000
    C2980   C    0.15579   0.88199   0.70849   1.000
    C2981   C    0.17998   0.84203   0.73557   1.000
    C2982   C    0.16567   0.83819   0.66698   1.000
    C2983   C    0.18961   0.79849   0.69394   1.000
    C2984   C    0.27242   0.77561   0.61090   1.000
    C2985   C    0.25665   0.75951   0.65835   1.000
    C2986   C    0.31059   0.90802   0.52408   1.000
    C2987   C    0.30483   0.93376   0.54690   1.000
    C2988   C    0.36814   0.84363   0.55895   1.000
    C2989   C    0.36260   0.86898   0.58131   1.000
    C2990   C    0.94423   0.11423   0.28384   1.000
    C2991   C    0.80348   0.30656   0.35963   1.000
    C2992   C    0.56944   0.42240   0.46092   1.000
    C2993   C    0.72696   0.36102   0.39955   1.000
    C2994   C    0.70539   0.37603   0.41455   1.000
    C2995   C    0.85054   0.31679   0.40521   1.000
    C2996   C    0.83063   0.31227   0.38220   1.000
    C2997   C    0.83104   0.31089   0.40641   1.000
    C2998   C    0.81170   0.30458   0.43068   1.000
    C2999   C    0.95726   0.18594   0.20837   1.000
    C3000   C    0.96258   0.15936   0.25305   1.000
    C3001   C    0.96494   0.18218   0.22795   1.000
    C3002   C    0.97322   0.20145   0.22390   1.000
    C3003   C    0.86389   0.16297   0.26799   1.000
    C3004   C    0.88804   0.14404   0.29961   1.000
    C3005   C    0.86360   0.15870   0.29240   1.000
    C3006   C    0.84085   0.17681   0.26152   1.000
    C3007   C    0.79230   0.20310   0.27199   1.000
    C3008   C    0.81672   0.18675   0.27927   1.000
    C3009   C    0.83943   0.16851   0.31016   1.000
    C3010   C    0.81647   0.18222   0.30374   1.000
    C3011   C    0.77212   0.28425   0.32264   1.000
    C3012   C    0.76276   0.27520   0.31363   1.000
    C3013   C    0.89950   0.32224   0.24194   1.000
    C3014   C    0.85700   0.34166   0.27304   1.000
    C3015   C    0.87369   0.33972   0.24672   1.000
    C3016   C    0.91423   0.31889   0.21750   1.000
    C3017   C    0.92138   0.07796   0.33257   1.000
    C3018   C    0.90339   0.33299   0.19747   1.000
    C3019   C    0.86331   0.35438   0.22638   1.000
    C3020   C    0.87794   0.35111   0.20213   1.000
    C3021   C    0.61124   0.42559   0.46103   1.000
    C3022   C    0.77265   0.33327   0.36883   1.000
    C3023   C    0.66370   0.40801   0.44352   1.000
    C3024   C    0.81320   0.30637   0.38370   1.000
    C3025   C    0.84773   0.36082   0.31969   1.000
    C3026   C    0.95352   0.14341   0.25626   1.000
    C3027   C    0.97946   0.09285   0.28098   1.000
    C3028   C    0.90937   0.13396   0.28390   1.000
    C3029   C    0.88647   0.14205   0.32149   1.000
    C3030   C    0.79336   0.20797   0.24927   1.000
    C3031   C    0.77143   0.21218   0.28867   1.000
    C3032   C    0.79140   0.30379   0.33926   1.000
    C3033   C    0.74604   0.25801   0.29346   1.000
    C3034   C    0.86762   0.33112   0.29016   1.000
    C3035   C    0.83264   0.27746   0.35332   1.000
    C3036   C    0.93508   0.08410   0.30855   1.000
    C3037   C    0.90414   0.15737   0.33907   1.000
    C3038   C    0.57747   0.40729   0.47622   1.000
    C3039   C    0.73515   0.34037   0.40917   1.000
    C3040   C    0.69749   0.36649   0.43529   1.000
    C3041   C    0.86577   0.32174   0.38695   1.000
    C3042   C    0.79634   0.29999   0.43236   1.000
    C3043   C    0.95064   0.17176   0.21061   1.000
    C3044   C    0.97918   0.19950   0.23842   1.000
    C3045   C    0.88199   0.15579   0.25374   1.000
    C3046   C    0.84203   0.17998   0.24241   1.000
    C3047   C    0.83819   0.16567   0.32917   1.000
    C3048   C    0.79849   0.18961   0.31797   1.000
    C3049   C    0.77561   0.27242   0.34107   1.000
    C3050   C    0.75951   0.25665   0.32549   1.000
    C3051   C    0.90802   0.31059   0.25730   1.000
    C3052   C    0.93376   0.30483   0.21452   1.000
    C3053   C    0.84363   0.36814   0.22928   1.000
    C3054   C    0.86898   0.36260   0.18711   1.000
    C3055   C    0.65770   0.28384   0.11423   1.000
    C3056   C    0.53034   0.35963   0.30656   1.000
    C3057   C    0.54723   0.46092   0.42240   1.000
    C3058   C    0.51247   0.39955   0.36102   1.000
    C3059   C    0.50403   0.41455   0.37603   1.000
    C3060   C    0.42746   0.40521   0.31679   1.000
    C3061   C    0.47489   0.38220   0.31227   1.000
    C3062   C    0.45167   0.40641   0.31089   1.000
    C3063   C    0.45304   0.43068   0.30458   1.000
    C3064   C    0.64843   0.20837   0.18594   1.000
    C3065   C    0.62501   0.25305   0.15936   1.000
    C3066   C    0.62494   0.22795   0.18218   1.000
    C3067   C    0.60143   0.22390   0.20145   1.000
    C3068   C    0.70516   0.26799   0.16297   1.000
    C3069   C    0.66831   0.29961   0.14404   1.000
    C3070   C    0.68530   0.29240   0.15870   1.000
    C3071   C    0.72083   0.26152   0.17681   1.000
    C3072   C    0.73261   0.27199   0.20310   1.000
    C3073   C    0.71726   0.27927   0.18675   1.000
    C3074   C    0.68190   0.31016   0.16851   1.000
    C3075   C    0.69757   0.30374   0.18222   1.000
    C3076   C    0.62099   0.32264   0.28425   1.000
    C3077   C    0.64841   0.31363   0.27520   1.000
    C3078   C    0.53632   0.24194   0.32224   1.000
    C3079   C    0.52830   0.27304   0.34166   1.000
    C3080   C    0.53987   0.24672   0.33972   1.000
    C3081   C    0.54938   0.21750   0.31889   1.000
    C3082   C    0.66808   0.33257   0.07796   1.000
    C3083   C    0.56615   0.19747   0.33299   1.000
    C3084   C    0.55592   0.22638   0.35438   1.000
    C3085   C    0.56881   0.20213   0.35111   1.000
    C3086   C    0.50214   0.46103   0.42559   1.000
    C3087   C    0.52525   0.36883   0.33327   1.000
    C3088   C    0.48477   0.44352   0.40801   1.000
    C3089   C    0.49673   0.38370   0.30637   1.000
    C3090   C    0.47176   0.31969   0.36082   1.000
    C3091   C    0.64681   0.25626   0.14341   1.000
    C3092   C    0.64670   0.28098   0.09285   1.000
    C3093   C    0.67277   0.28390   0.13396   1.000
    C3094   C    0.65000   0.32149   0.14205   1.000
    C3095   C    0.74940   0.24927   0.20797   1.000
    C3096   C    0.72771   0.28867   0.21218   1.000
    C3097   C    0.56556   0.33926   0.30379   1.000
    C3098   C    0.70249   0.29346   0.25801   1.000
    C3099   C    0.51111   0.29016   0.33112   1.000
    C3100   C    0.53657   0.35332   0.27746   1.000
    C3101   C    0.67227   0.30855   0.08410   1.000
    C3102   C    0.59943   0.33907   0.15737   1.000
    C3103   C    0.53902   0.47622   0.40729   1.000
    C3104   C    0.51532   0.40917   0.34037   1.000
    C3105   C    0.50073   0.43529   0.36649   1.000
    C3106   C    0.42554   0.38695   0.32174   1.000
    C3107   C    0.47131   0.43236   0.29999   1.000
    C3108   C    0.66698   0.21061   0.17176   1.000
    C3109   C    0.58290   0.23842   0.19950   1.000
    C3110   C    0.70849   0.25374   0.15579   1.000
    C3111   C    0.73557   0.24241   0.17998   1.000
    C3112   C    0.66698   0.32917   0.16567   1.000
    C3113   C    0.69394   0.31797   0.18961   1.000
    C3114   C    0.61090   0.34107   0.27242   1.000
    C3115   C    0.65835   0.32549   0.25665   1.000
    C3116   C    0.52408   0.25730   0.31059   1.000
    C3117   C    0.54690   0.21452   0.30483   1.000
    C3118   C    0.55895   0.22928   0.36814   1.000
    C3119   C    0.58131   0.18711   0.36260   1.000
    C3120   C    0.41880   0.47185   0.47185   1.000
    C3121   C    0.47185   0.41880   0.63750   1.000
    C3122   C    0.47185   0.63750   0.41880   1.000
    C3123   C    0.63750   0.47185   0.47185   1.000
    C3124   C    0.47185   0.41880   0.47185   1.000
    C3125   C    0.63750   0.47185   0.41880   1.000
    C3126   C    0.41880   0.47185   0.63750   1.000
    C3127   C    0.47185   0.63750   0.47185   1.000
    C3128   C    0.47185   0.47185   0.41880   1.000
    C3129   C    0.41880   0.63750   0.47185   1.000
    C3130   C    0.63750   0.41880   0.47185   1.000
    C3131   C    0.47185   0.47185   0.63750   1.000
    C3132   C    0.83120   0.77815   0.61250   1.000
    C3133   C    0.77815   0.83120   0.77815   1.000
    C3134   C    0.77815   0.61250   0.77815   1.000
    C3135   C    0.61250   0.77815   0.83120   1.000
    C3136   C    0.77815   0.83120   0.61250   1.000
    C3137   C    0.61250   0.77815   0.77815   1.000
    C3138   C    0.83120   0.77815   0.77815   1.000
    C3139   C    0.77815   0.61250   0.83120   1.000
    C3140   C    0.77815   0.77815   0.61250   1.000
    C3141   C    0.83120   0.61250   0.77815   1.000
    C3142   C    0.61250   0.83120   0.77815   1.000
    C3143   C    0.77815   0.77815   0.83120   1.000
    C3144   C    0.12500   0.34065   0.62500   1.000
    C3145   C    0.12500   0.31008   0.62500   1.000
    C3146   C    0.34065   0.12500   0.90935   1.000
    C3147   C    0.31008   0.12500   0.93992   1.000
    C3148   C    0.62500   0.90935   0.12500   1.000
    C3149   C    0.62500   0.93992   0.12500   1.000
    C3150   C    0.90935   0.62500   0.34065   1.000
    C3151   C    0.93992   0.62500   0.31008   1.000
    C3152   C    0.62500   0.12500   0.34065   1.000
    C3153   C    0.62500   0.12500   0.31008   1.000
    C3154   C    0.90935   0.34065   0.12500   1.000
    C3155   C    0.93992   0.31008   0.12500   1.000
    C3156   C    0.12500   0.62500   0.90935   1.000
    C3157   C    0.12500   0.62500   0.93992   1.000
    C3158   C    0.34065   0.90935   0.62500   1.000
    C3159   C    0.31008   0.93992   0.62500   1.000
    C3160   C    0.34065   0.62500   0.12500   1.000
    C3161   C    0.31008   0.62500   0.12500   1.000
    C3162   C    0.12500   0.90935   0.34065   1.000
    C3163   C    0.12500   0.93992   0.31008   1.000
    C3164   C    0.90935   0.12500   0.62500   1.000
    C3165   C    0.93992   0.12500   0.62500   1.000
    C3166   C    0.62500   0.34065   0.90935   1.000
    C3167   C    0.62500   0.31008   0.93992   1.000
    C3168   C    0.12500   0.90935   0.62500   1.000
    C3169   C    0.12500   0.93992   0.62500   1.000
    C3170   C    0.90935   0.12500   0.34065   1.000
    C3171   C    0.93992   0.12500   0.31008   1.000
    C3172   C    0.62500   0.34065   0.12500   1.000
    C3173   C    0.62500   0.31008   0.12500   1.000
    C3174   C    0.34065   0.62500   0.90935   1.000
    C3175   C    0.31008   0.62500   0.93992   1.000
    C3176   C    0.62500   0.12500   0.90935   1.000
    C3177   C    0.62500   0.12500   0.93992   1.000
    C3178   C    0.34065   0.90935   0.12500   1.000
    C3179   C    0.31008   0.93992   0.12500   1.000
    C3180   C    0.12500   0.62500   0.34065   1.000
    C3181   C    0.12500   0.62500   0.31008   1.000
    C3182   C    0.90935   0.34065   0.62500   1.000
    C3183   C    0.93992   0.31008   0.62500   1.000
    C3184   C    0.90935   0.62500   0.12500   1.000
    C3185   C    0.93992   0.62500   0.12500   1.000
    C3186   C    0.12500   0.34065   0.90935   1.000
    C3187   C    0.12500   0.31008   0.93992   1.000
    C3188   C    0.34065   0.12500   0.62500   1.000
    C3189   C    0.31008   0.12500   0.62500   1.000
    C3190   C    0.62500   0.90935   0.34065   1.000
    C3191   C    0.62500   0.93992   0.31008   1.000
    C3192   C    0.22983   0.22983   0.77017   1.000
    C3193   C    0.25157   0.25157   0.74843   1.000
    C3194   C    0.77017   0.77017   0.22983   1.000
    C3195   C    0.74843   0.74843   0.25157   1.000
    C3196   C    0.77017   0.22983   0.22983   1.000
    C3197   C    0.74843   0.25157   0.25157   1.000
    C3198   C    0.22983   0.77017   0.77017   1.000
    C3199   C    0.25157   0.74843   0.74843   1.000
    C3200   C    0.22983   0.77017   0.22983   1.000
    C3201   C    0.25157   0.74843   0.25157   1.000
    C3202   C    0.77017   0.22983   0.77017   1.000
    C3203   C    0.74843   0.25157   0.74843   1.000
    C3204   C    0.02017   0.02017   0.47983   1.000
    C3205   C    0.99843   0.99843   0.50157   1.000
    C3206   C    0.47983   0.47983   0.02017   1.000
    C3207   C    0.50157   0.50157   0.99843   1.000
    C3208   C    0.47983   0.02017   0.47983   1.000
    C3209   C    0.50157   0.99843   0.50157   1.000
    C3210   C    0.02017   0.47983   0.02017   1.000
    C3211   C    0.99843   0.50157   0.99843   1.000
    C3212   C    0.02017   0.47983   0.47983   1.000
    C3213   C    0.99843   0.50157   0.50157   1.000
    C3214   C    0.47983   0.02017   0.02017   1.000
    C3215   C    0.50157   0.99843   0.99843   1.000
    C3216   C    0.23592   0.28896   0.73756   1.000
    C3217   C    0.28896   0.23592   0.73756   1.000
    C3218   C    0.73756   0.73756   0.23592   1.000
    C3219   C    0.73756   0.73756   0.28896   1.000
    C3220   C    0.73756   0.23592   0.28896   1.000
    C3221   C    0.73756   0.28896   0.23592   1.000
    C3222   C    0.23592   0.73756   0.73756   1.000
    C3223   C    0.28896   0.73756   0.73756   1.000
    C3224   C    0.28896   0.73756   0.23592   1.000
    C3225   C    0.23592   0.73756   0.28896   1.000
    C3226   C    0.73756   0.23592   0.73756   1.000
    C3227   C    0.73756   0.28896   0.73756   1.000
    C3228   C    0.01408   0.96104   0.51244   1.000
    C3229   C    0.96104   0.01408   0.51244   1.000
    C3230   C    0.51244   0.51244   0.96104   1.000
    C3231   C    0.51244   0.51244   0.01408   1.000
    C3232   C    0.51244   0.01408   0.51244   1.000
    C3233   C    0.51244   0.96104   0.51244   1.000
    C3234   C    0.01408   0.51244   0.96104   1.000
    C3235   C    0.96104   0.51244   0.01408   1.000
    C3236   C    0.96104   0.51244   0.51244   1.000
    C3237   C    0.01408   0.51244   0.51244   1.000
    C3238   C    0.51244   0.01408   0.96104   1.000
    C3239   C    0.51244   0.96104   0.01408   1.000
    C3240   C    0.32574   0.32574   0.49285   1.000
    C3241   C    0.35723   0.35723   0.52298   1.000
    C3242   C    0.37266   0.37266   0.51646   1.000
    C3243   C    0.41918   0.41918   0.48908   1.000
    C3244   C    0.40303   0.40303   0.49938   1.000
    C3245   C    0.31762   0.31762   0.57750   1.000
    C3246   C    0.30807   0.30807   0.60680   1.000
    C3247   C    0.28000   0.28000   0.69049   1.000
    C3248   C    0.28965   0.28965   0.66272   1.000
    C3249   C    0.33063   0.33063   0.51787   1.000
    C3250   C    0.32574   0.32574   0.85566   1.000
    C3251   C    0.35723   0.35723   0.76256   1.000
    C3252   C    0.37266   0.37266   0.73822   1.000
    C3253   C    0.41918   0.41918   0.67257   1.000
    C3254   C    0.40303   0.40303   0.69455   1.000
    C3255   C    0.31762   0.31762   0.78725   1.000
    C3256   C    0.30807   0.30807   0.77705   1.000
    C3257   C    0.28000   0.28000   0.74951   1.000
    C3258   C    0.28965   0.28965   0.75798   1.000
    C3259   C    0.33063   0.33063   0.82086   1.000
    C3260   C    0.49285   0.85566   0.32574   1.000
    C3261   C    0.52298   0.76256   0.35723   1.000
    C3262   C    0.51646   0.73822   0.37266   1.000
    C3263   C    0.48908   0.67257   0.41918   1.000
    C3264   C    0.49938   0.69455   0.40303   1.000
    C3265   C    0.57750   0.78725   0.31762   1.000
    C3266   C    0.60680   0.77705   0.30807   1.000
    C3267   C    0.69049   0.74951   0.28000   1.000
    C3268   C    0.66272   0.75798   0.28965   1.000
    C3269   C    0.51787   0.82086   0.33063   1.000
    C3270   C    0.85566   0.49285   0.32574   1.000
    C3271   C    0.76256   0.52298   0.35723   1.000
    C3272   C    0.73822   0.51646   0.37266   1.000
    C3273   C    0.67257   0.48908   0.41918   1.000
    C3274   C    0.69455   0.49938   0.40303   1.000
    C3275   C    0.78725   0.57750   0.31762   1.000
    C3276   C    0.77705   0.60680   0.30807   1.000
    C3277   C    0.74951   0.69049   0.28000   1.000
    C3278   C    0.75798   0.66272   0.28965   1.000
    C3279   C    0.82086   0.51787   0.33063   1.000
    C3280   C    0.49285   0.32574   0.32574   1.000
    C3281   C    0.52298   0.35723   0.35723   1.000
    C3282   C    0.51646   0.37266   0.37266   1.000
    C3283   C    0.48908   0.41918   0.41918   1.000
    C3284   C    0.49938   0.40303   0.40303   1.000
    C3285   C    0.57750   0.31762   0.31762   1.000
    C3286   C    0.60680   0.30807   0.30807   1.000
    C3287   C    0.69049   0.28000   0.28000   1.000
    C3288   C    0.66272   0.28965   0.28965   1.000
    C3289   C    0.51787   0.33063   0.33063   1.000
    C3290   C    0.85566   0.32574   0.32574   1.000
    C3291   C    0.76256   0.35723   0.35723   1.000
    C3292   C    0.73822   0.37266   0.37266   1.000
    C3293   C    0.67257   0.41918   0.41918   1.000
    C3294   C    0.69455   0.40303   0.40303   1.000
    C3295   C    0.78725   0.31762   0.31762   1.000
    C3296   C    0.77705   0.30807   0.30807   1.000
    C3297   C    0.74951   0.28000   0.28000   1.000
    C3298   C    0.75798   0.28965   0.28965   1.000
    C3299   C    0.82086   0.33063   0.33063   1.000
    C3300   C    0.32574   0.49285   0.85566   1.000
    C3301   C    0.35723   0.52298   0.76256   1.000
    C3302   C    0.37266   0.51646   0.73822   1.000
    C3303   C    0.41918   0.48908   0.67257   1.000
    C3304   C    0.40303   0.49938   0.69455   1.000
    C3305   C    0.31762   0.57750   0.78725   1.000
    C3306   C    0.30807   0.60680   0.77705   1.000
    C3307   C    0.28000   0.69049   0.74951   1.000
    C3308   C    0.28965   0.66272   0.75798   1.000
    C3309   C    0.33063   0.51787   0.82086   1.000
    C3310   C    0.32574   0.85566   0.49285   1.000
    C3311   C    0.35723   0.76256   0.52298   1.000
    C3312   C    0.37266   0.73822   0.51646   1.000
    C3313   C    0.41918   0.67257   0.48908   1.000
    C3314   C    0.40303   0.69455   0.49938   1.000
    C3315   C    0.31762   0.78725   0.57750   1.000
    C3316   C    0.30807   0.77705   0.60680   1.000
    C3317   C    0.28000   0.74951   0.69049   1.000
    C3318   C    0.28965   0.75798   0.66272   1.000
    C3319   C    0.33063   0.82086   0.51787   1.000
    C3320   C    0.32574   0.49285   0.32574   1.000
    C3321   C    0.35723   0.52298   0.35723   1.000
    C3322   C    0.37266   0.51646   0.37266   1.000
    C3323   C    0.41918   0.48908   0.41918   1.000
    C3324   C    0.40303   0.49938   0.40303   1.000
    C3325   C    0.31762   0.57750   0.31762   1.000
    C3326   C    0.30807   0.60680   0.30807   1.000
    C3327   C    0.28000   0.69049   0.28000   1.000
    C3328   C    0.28965   0.66272   0.28965   1.000
    C3329   C    0.33063   0.51787   0.33063   1.000
    C3330   C    0.32574   0.85566   0.32574   1.000
    C3331   C    0.35723   0.76256   0.35723   1.000
    C3332   C    0.37266   0.73822   0.37266   1.000
    C3333   C    0.41918   0.67257   0.41918   1.000
    C3334   C    0.40303   0.69455   0.40303   1.000
    C3335   C    0.31762   0.78725   0.31762   1.000
    C3336   C    0.30807   0.77705   0.30807   1.000
    C3337   C    0.28000   0.74951   0.28000   1.000
    C3338   C    0.28965   0.75798   0.28965   1.000
    C3339   C    0.33063   0.82086   0.33063   1.000
    C3340   C    0.85566   0.32574   0.49285   1.000
    C3341   C    0.76256   0.35723   0.52298   1.000
    C3342   C    0.73822   0.37266   0.51646   1.000
    C3343   C    0.67257   0.41918   0.48908   1.000
    C3344   C    0.69455   0.40303   0.49938   1.000
    C3345   C    0.78725   0.31762   0.57750   1.000
    C3346   C    0.77705   0.30807   0.60680   1.000
    C3347   C    0.74951   0.28000   0.69049   1.000
    C3348   C    0.75798   0.28965   0.66272   1.000
    C3349   C    0.82086   0.33063   0.51787   1.000
    C3350   C    0.49285   0.32574   0.85566   1.000
    C3351   C    0.52298   0.35723   0.76256   1.000
    C3352   C    0.51646   0.37266   0.73822   1.000
    C3353   C    0.48908   0.41918   0.67257   1.000
    C3354   C    0.49938   0.40303   0.69455   1.000
    C3355   C    0.57750   0.31762   0.78725   1.000
    C3356   C    0.60680   0.30807   0.77705   1.000
    C3357   C    0.69049   0.28000   0.74951   1.000
    C3358   C    0.66272   0.28965   0.75798   1.000
    C3359   C    0.51787   0.33063   0.82086   1.000
    C3360   C    0.92426   0.92426   0.39434   1.000
    C3361   C    0.89277   0.89277   0.48744   1.000
    C3362   C    0.87734   0.87734   0.51178   1.000
    C3363   C    0.83082   0.83082   0.57743   1.000
    C3364   C    0.84697   0.84697   0.55545   1.000
    C3365   C    0.93238   0.93238   0.46275   1.000
    C3366   C    0.94193   0.94193   0.47295   1.000
    C3367   C    0.97000   0.97000   0.50049   1.000
    C3368   C    0.96035   0.96035   0.49202   1.000
    C3369   C    0.91937   0.91937   0.42914   1.000
    C3370   C    0.92426   0.92426   0.75715   1.000
    C3371   C    0.89277   0.89277   0.72702   1.000
    C3372   C    0.87734   0.87734   0.73354   1.000
    C3373   C    0.83082   0.83082   0.76092   1.000
    C3374   C    0.84697   0.84697   0.75062   1.000
    C3375   C    0.93238   0.93238   0.67250   1.000
    C3376   C    0.94193   0.94193   0.64320   1.000
    C3377   C    0.97000   0.97000   0.55951   1.000
    C3378   C    0.96035   0.96035   0.58728   1.000
    C3379   C    0.91937   0.91937   0.73213   1.000
    C3380   C    0.75715   0.39434   0.92426   1.000
    C3381   C    0.72702   0.48744   0.89277   1.000
    C3382   C    0.73354   0.51178   0.87734   1.000
    C3383   C    0.76092   0.57743   0.83082   1.000
    C3384   C    0.75062   0.55545   0.84697   1.000
    C3385   C    0.67250   0.46275   0.93238   1.000
    C3386   C    0.64320   0.47295   0.94193   1.000
    C3387   C    0.55951   0.50049   0.97000   1.000
    C3388   C    0.58728   0.49202   0.96035   1.000
    C3389   C    0.73213   0.42914   0.91937   1.000
    C3390   C    0.39434   0.75715   0.92426   1.000
    C3391   C    0.48744   0.72702   0.89277   1.000
    C3392   C    0.51178   0.73354   0.87734   1.000
    C3393   C    0.57743   0.76092   0.83082   1.000
    C3394   C    0.55545   0.75062   0.84697   1.000
    C3395   C    0.46275   0.67250   0.93238   1.000
    C3396   C    0.47295   0.64320   0.94193   1.000
    C3397   C    0.50049   0.55951   0.97000   1.000
    C3398   C    0.49202   0.58728   0.96035   1.000
    C3399   C    0.42914   0.73213   0.91937   1.000
    C3400   C    0.75715   0.92426   0.39434   1.000
    C3401   C    0.72702   0.89277   0.48744   1.000
    C3402   C    0.73354   0.87734   0.51178   1.000
    C3403   C    0.76092   0.83082   0.57743   1.000
    C3404   C    0.75062   0.84697   0.55545   1.000
    C3405   C    0.67250   0.93238   0.46275   1.000
    C3406   C    0.64320   0.94193   0.47295   1.000
    C3407   C    0.55951   0.97000   0.50049   1.000
    C3408   C    0.58728   0.96035   0.49202   1.000
    C3409   C    0.73213   0.91937   0.42914   1.000
    C3410   C    0.39434   0.92426   0.75715   1.000
    C3411   C    0.48744   0.89277   0.72702   1.000
    C3412   C    0.51178   0.87734   0.73354   1.000
    C3413   C    0.57743   0.83082   0.76092   1.000
    C3414   C    0.55545   0.84697   0.75062   1.000
    C3415   C    0.46275   0.93238   0.67250   1.000
    C3416   C    0.47295   0.94193   0.64320   1.000
    C3417   C    0.50049   0.97000   0.55951   1.000
    C3418   C    0.49202   0.96035   0.58728   1.000
    C3419   C    0.42914   0.91937   0.73213   1.000
    C3420   C    0.92426   0.75715   0.92426   1.000
    C3421   C    0.89277   0.72702   0.89277   1.000
    C3422   C    0.87734   0.73354   0.87734   1.000
    C3423   C    0.83082   0.76092   0.83082   1.000
    C3424   C    0.84697   0.75062   0.84697   1.000
    C3425   C    0.93238   0.67250   0.93238   1.000
    C3426   C    0.94193   0.64320   0.94193   1.000
    C3427   C    0.97000   0.55951   0.97000   1.000
    C3428   C    0.96035   0.58728   0.96035   1.000
    C3429   C    0.91937   0.73213   0.91937   1.000
    C3430   C    0.92426   0.39434   0.92426   1.000
    C3431   C    0.89277   0.48744   0.89277   1.000
    C3432   C    0.87734   0.51178   0.87734   1.000
    C3433   C    0.83082   0.57743   0.83082   1.000
    C3434   C    0.84697   0.55545   0.84697   1.000
    C3435   C    0.93238   0.46275   0.93238   1.000
    C3436   C    0.94193   0.47295   0.94193   1.000
    C3437   C    0.97000   0.50049   0.97000   1.000
    C3438   C    0.96035   0.49202   0.96035   1.000
    C3439   C    0.91937   0.42914   0.91937   1.000
    C3440   C    0.92426   0.75715   0.39434   1.000
    C3441   C    0.89277   0.72702   0.48744   1.000
    C3442   C    0.87734   0.73354   0.51178   1.000
    C3443   C    0.83082   0.76092   0.57743   1.000
    C3444   C    0.84697   0.75062   0.55545   1.000
    C3445   C    0.93238   0.67250   0.46275   1.000
    C3446   C    0.94193   0.64320   0.47295   1.000
    C3447   C    0.97000   0.55951   0.50049   1.000
    C3448   C    0.96035   0.58728   0.49202   1.000
    C3449   C    0.91937   0.73213   0.42914   1.000
    C3450   C    0.92426   0.39434   0.75715   1.000
    C3451   C    0.89277   0.48744   0.72702   1.000
    C3452   C    0.87734   0.51178   0.73354   1.000
    C3453   C    0.83082   0.57743   0.76092   1.000
    C3454   C    0.84697   0.55545   0.75062   1.000
    C3455   C    0.93238   0.46275   0.67250   1.000
    C3456   C    0.94193   0.47295   0.64320   1.000
    C3457   C    0.97000   0.50049   0.55951   1.000
    C3458   C    0.96035   0.49202   0.58728   1.000
    C3459   C    0.91937   0.42914   0.73213   1.000
    C3460   C    0.39434   0.92426   0.92426   1.000
    C3461   C    0.48744   0.89277   0.89277   1.000
    C3462   C    0.51178   0.87734   0.87734   1.000
    C3463   C    0.57743   0.83082   0.83082   1.000
    C3464   C    0.55545   0.84697   0.84697   1.000
    C3465   C    0.46275   0.93238   0.93238   1.000
    C3466   C    0.47295   0.94193   0.94193   1.000
    C3467   C    0.50049   0.97000   0.97000   1.000
    C3468   C    0.49202   0.96035   0.96035   1.000
    C3469   C    0.42914   0.91937   0.91937   1.000
    C3470   C    0.75715   0.92426   0.92426   1.000
    C3471   C    0.72702   0.89277   0.89277   1.000
    C3472   C    0.73354   0.87734   0.87734   1.000
    C3473   C    0.76092   0.83082   0.83082   1.000
    C3474   C    0.75062   0.84697   0.84697   1.000
    C3475   C    0.67250   0.93238   0.93238   1.000
    C3476   C    0.64320   0.94193   0.94193   1.000
    C3477   C    0.55951   0.97000   0.97000   1.000
    C3478   C    0.58728   0.96035   0.96035   1.000
    C3479   C    0.73213   0.91937   0.91937   1.000
    C3480   C    0.44280   0.44280   0.51229   1.000
    C3481   C    0.44188   0.44188   0.53555   1.000
    C3482   C    0.44280   0.44280   0.60211   1.000
    C3483   C    0.44188   0.44188   0.58069   1.000
    C3484   C    0.51229   0.60211   0.44280   1.000
    C3485   C    0.53555   0.58069   0.44188   1.000
    C3486   C    0.60211   0.51229   0.44280   1.000
    C3487   C    0.58069   0.53555   0.44188   1.000
    C3488   C    0.51229   0.44280   0.44280   1.000
    C3489   C    0.53555   0.44188   0.44188   1.000
    C3490   C    0.60211   0.44280   0.44280   1.000
    C3491   C    0.58069   0.44188   0.44188   1.000
    C3492   C    0.44280   0.51229   0.60211   1.000
    C3493   C    0.44188   0.53555   0.58069   1.000
    C3494   C    0.44280   0.60211   0.51229   1.000
    C3495   C    0.44188   0.58069   0.53555   1.000
    C3496   C    0.44280   0.51229   0.44280   1.000
    C3497   C    0.44188   0.53555   0.44188   1.000
    C3498   C    0.44280   0.60211   0.44280   1.000
    C3499   C    0.44188   0.58069   0.44188   1.000
    C3500   C    0.60211   0.44280   0.51229   1.000
    C3501   C    0.58069   0.44188   0.53555   1.000
    C3502   C    0.51229   0.44280   0.60211   1.000
    C3503   C    0.53555   0.44188   0.58069   1.000
    C3504   C    0.80720   0.80720   0.64789   1.000
    C3505   C    0.80812   0.80812   0.66931   1.000
    C3506   C    0.80720   0.80720   0.73771   1.000
    C3507   C    0.80812   0.80812   0.71445   1.000
    C3508   C    0.73771   0.64789   0.80720   1.000
    C3509   C    0.71445   0.66931   0.80812   1.000
    C3510   C    0.64789   0.73771   0.80720   1.000
    C3511   C    0.66931   0.71445   0.80812   1.000
    C3512   C    0.73771   0.80720   0.64789   1.000
    C3513   C    0.71445   0.80812   0.66931   1.000
    C3514   C    0.64789   0.80720   0.73771   1.000
    C3515   C    0.66931   0.80812   0.71445   1.000
    C3516   C    0.80720   0.73771   0.80720   1.000
    C3517   C    0.80812   0.71445   0.80812   1.000
    C3518   C    0.80720   0.64789   0.80720   1.000
    C3519   C    0.80812   0.66931   0.80812   1.000
    C3520   C    0.80720   0.73771   0.64789   1.000
    C3521   C    0.80812   0.71445   0.66931   1.000
    C3522   C    0.80720   0.64789   0.73771   1.000
    C3523   C    0.80812   0.66931   0.71445   1.000
    C3524   C    0.64789   0.80720   0.80720   1.000
    C3525   C    0.66931   0.80812   0.80812   1.000
    C3526   C    0.73771   0.80720   0.80720   1.000
    C3527   C    0.71445   0.80812   0.80812   1.000
    C3528   C    0.45414   0.45414   0.45414   1.000
    C3529   C    0.45414   0.45414   0.63759   1.000
    C3530   C    0.45414   0.63759   0.45414   1.000
    C3531   C    0.63759   0.45414   0.45414   1.000
    C3532   C    0.79586   0.79586   0.61241   1.000
    C3533   C    0.79586   0.79586   0.79586   1.000
    C3534   C    0.79586   0.61241   0.79586   1.000
    C3535   C    0.61241   0.79586   0.79586   1.000
    O3536   O    0.46824   0.49022   0.01045   1.000
    O3537   O    0.45717   0.50900   0.98937   1.000
    O3538   O    0.03110   0.46824   0.01045   1.000
    O3539   O    0.04446   0.45717   0.98937   1.000
    O3540   O    0.46824   0.03110   0.01045   1.000
    O3541   O    0.45717   0.04446   0.98937   1.000
    O3542   O    0.49022   0.03110   0.01045   1.000
    O3543   O    0.50900   0.04446   0.98937   1.000
    O3544   O    0.49022   0.46824   0.01045   1.000
    O3545   O    0.50900   0.45717   0.98937   1.000
    O3546   O    0.03110   0.49022   0.01045   1.000
    O3547   O    0.04446   0.50900   0.98937   1.000
    O3548   O    0.71190   0.91902   0.00567   1.000
    O3549   O    0.70211   0.90295   0.01345   1.000
    O3550   O    0.71592   0.90931   0.99012   1.000
    O3551   O    0.36340   0.71191   0.00567   1.000
    O3552   O    0.38150   0.70211   0.01345   1.000
    O3553   O    0.38466   0.71591   0.99012   1.000
    O3554   O    0.71191   0.36341   0.00567   1.000
    O3555   O    0.70210   0.38150   0.01345   1.000
    O3556   O    0.71591   0.38465   0.99012   1.000
    O3557   O    0.91902   0.71191   0.00567   1.000
    O3558   O    0.90295   0.70211   0.01345   1.000
    O3559   O    0.90931   0.71591   0.99012   1.000
    O3560   O    0.91902   0.36341   0.00567   1.000
    O3561   O    0.90295   0.38150   0.01345   1.000
    O3562   O    0.90931   0.38465   0.99012   1.000
    O3563   O    0.36340   0.91902   0.00567   1.000
    O3564   O    0.38150   0.90295   0.01345   1.000
    O3565   O    0.38466   0.90931   0.99012   1.000
    O3566   O    0.07161   0.40856   0.99804   1.000
    O3567   O    0.40856   0.07160   0.99804   1.000
    O3568   O    0.52180   0.07160   0.99804   1.000
    O3569   O    0.52180   0.40856   0.99804   1.000
    O3570   O    0.07160   0.52180   0.99804   1.000
    O3571   O    0.40856   0.52180   0.99804   1.000
    O3572   O    0.70715   0.34314   0.02028   1.000
    O3573   O    0.71980   0.34624   0.00038   1.000
    O3574   O    0.92943   0.34314   0.02028   1.000
    O3575   O    0.93359   0.34624   0.00038   1.000
    O3576   O    0.34314   0.70715   0.02028   1.000
    O3577   O    0.34624   0.71980   0.00038   1.000
    O3578   O    0.92943   0.70715   0.02028   1.000
    O3579   O    0.93358   0.71980   0.00038   1.000
    O3580   O    0.70715   0.92943   0.02028   1.000
    O3581   O    0.71980   0.93358   0.00038   1.000
    O3582   O    0.34314   0.92943   0.02028   1.000
    O3583   O    0.34624   0.93358   0.00038   1.000
    O3584   O    0.04952   0.27380   0.01884   1.000
    O3585   O    0.27380   0.04953   0.01884   1.000
    O3586   O    0.65783   0.27380   0.01884   1.000
    O3587   O    0.65783   0.04953   0.01884   1.000
    O3588   O    0.27380   0.65784   0.01884   1.000
    O3589   O    0.04953   0.65784   0.01884   1.000
    O3590   O    0.49551   0.96118   0.02595   1.000
    O3591   O    0.51737   0.96118   0.02595   1.000
    O3592   O    0.50820   0.95879   0.00304   1.000
    O3593   O    0.52998   0.95879   0.00304   1.000
    O3594   O    0.50700   0.97974   0.00626   1.000
    O3595   O    0.96118   0.51737   0.02595   1.000
    O3596   O    0.96119   0.49551   0.02595   1.000
    O3597   O    0.95879   0.50820   0.00304   1.000
    O3598   O    0.95879   0.52997   0.00304   1.000
    O3599   O    0.97974   0.50701   0.00626   1.000
    O3600   O    0.49550   0.51737   0.02595   1.000
    O3601   O    0.51737   0.49551   0.02595   1.000
    O3602   O    0.52997   0.50820   0.00304   1.000
    O3603   O    0.50820   0.52997   0.00304   1.000
    O3604   O    0.50701   0.50701   0.00626   1.000
    O3605   O    0.49021   0.46823   0.03110   1.000
    O3606   O    0.46824   0.49022   0.03110   1.000
    O3607   O    0.01045   0.46823   0.03110   1.000
    O3608   O    0.01045   0.49022   0.03110   1.000
    O3609   O    0.49022   0.01045   0.03110   1.000
    O3610   O    0.46823   0.01045   0.03110   1.000
    O3611   O    0.39653   0.88874   0.02217   1.000
    O3612   O    0.69257   0.88874   0.02217   1.000
    O3613   O    0.88874   0.69257   0.02217   1.000
    O3614   O    0.39653   0.69257   0.02217   1.000
    O3615   O    0.69257   0.39653   0.02217   1.000
    O3616   O    0.88874   0.39653   0.02217   1.000
    O3617   O    0.63681   0.05819   0.02408   1.000
    O3618   O    0.61331   0.06594   0.03184   1.000
    O3619   O    0.62503   0.07923   0.00950   1.000
    O3620   O    0.28092   0.05819   0.02408   1.000
    O3621   O    0.28890   0.06594   0.03184   1.000
    O3622   O    0.28624   0.07923   0.00950   1.000
    O3623   O    0.05819   0.63682   0.02408   1.000
    O3624   O    0.06594   0.61331   0.03184   1.000
    O3625   O    0.07923   0.62503   0.00950   1.000
    O3626   O    0.05818   0.28092   0.02408   1.000
    O3627   O    0.06594   0.28890   0.03184   1.000
    O3628   O    0.07923   0.28624   0.00950   1.000
    O3629   O    0.63682   0.28092   0.02408   1.000
    O3630   O    0.61331   0.28890   0.03184   1.000
    O3631   O    0.62502   0.28624   0.00950   1.000
    O3632   O    0.28092   0.63682   0.02408   1.000
    O3633   O    0.28890   0.61331   0.03184   1.000
    O3634   O    0.28624   0.62503   0.00950   1.000
    O3635   O    0.89725   0.37937   0.03575   1.000
    O3636   O    0.37937   0.89725   0.03575   1.000
    O3637   O    0.68763   0.37937   0.03575   1.000
    O3638   O    0.68763   0.89725   0.03575   1.000
    O3639   O    0.89725   0.68764   0.03575   1.000
    O3640   O    0.37937   0.68764   0.03575   1.000
    O3641   O    0.27678   0.03732   0.03733   1.000
    O3642   O    0.64857   0.03732   0.03733   1.000
    O3643   O    0.64857   0.27678   0.03733   1.000
    O3644   O    0.03732   0.27678   0.03733   1.000
    O3645   O    0.27678   0.64857   0.03733   1.000
    O3646   O    0.03732   0.64857   0.03733   1.000
    O3647   O    0.70186   0.93814   0.03399   1.000
    O3648   O    0.69223   0.92406   0.04252   1.000
    O3649   O    0.32601   0.70186   0.03399   1.000
    O3650   O    0.34119   0.69223   0.04252   1.000
    O3651   O    0.93814   0.32601   0.03399   1.000
    O3652   O    0.92406   0.34119   0.04252   1.000
    O3653   O    0.32600   0.93814   0.03399   1.000
    O3654   O    0.34119   0.92406   0.04252   1.000
    O3655   O    0.93814   0.70186   0.03399   1.000
    O3656   O    0.92406   0.69223   0.04252   1.000
    O3657   O    0.70186   0.32601   0.03399   1.000
    O3658   O    0.69223   0.34119   0.04252   1.000
    O3659   O    0.46813   0.51984   0.04236   1.000
    O3660   O    0.96967   0.51984   0.04236   1.000
    O3661   O    0.51984   0.46813   0.04236   1.000
    O3662   O    0.46814   0.96967   0.04236   1.000
    O3663   O    0.51984   0.96967   0.04236   1.000
    O3664   O    0.96967   0.46813   0.04236   1.000
    O3665   O    0.29605   0.59230   0.04051   1.000
    O3666   O    0.59230   0.29605   0.04051   1.000
    O3667   O    0.07115   0.59230   0.04051   1.000
    O3668   O    0.07115   0.29605   0.04051   1.000
    O3669   O    0.29605   0.07115   0.04051   1.000
    O3670   O    0.59230   0.07115   0.04051   1.000
    O3671   O    0.29274   0.05285   0.05285   1.000
    O3672   O    0.60157   0.29274   0.05285   1.000
    O3673   O    0.05284   0.60157   0.05285   1.000
    O3674   O    0.05285   0.29274   0.05285   1.000
    O3675   O    0.29274   0.60157   0.05285   1.000
    O3676   O    0.60157   0.05285   0.05285   1.000
    O3677   O    0.50900   0.45717   0.04446   1.000
    O3678   O    0.50900   0.98937   0.04446   1.000
    O3679   O    0.98937   0.45717   0.04446   1.000
    O3680   O    0.45717   0.50900   0.04446   1.000
    O3681   O    0.98937   0.50900   0.04446   1.000
    O3682   O    0.45717   0.98937   0.04446   1.000
    O3683   O    0.44549   0.52507   0.05508   1.000
    O3684   O    0.52506   0.44549   0.05508   1.000
    O3685   O    0.44549   0.97437   0.05508   1.000
    O3686   O    0.97437   0.44549   0.05508   1.000
    O3687   O    0.97437   0.52507   0.05508   1.000
    O3688   O    0.52507   0.97437   0.05508   1.000
    O3689   O    0.68252   0.35933   0.05020   1.000
    O3690   O    0.67494   0.37654   0.05538   1.000
    O3691   O    0.35934   0.90795   0.05020   1.000
    O3692   O    0.37654   0.89314   0.05538   1.000
    O3693   O    0.90795   0.68252   0.05020   1.000
    O3694   O    0.89314   0.67494   0.05538   1.000
    O3695   O    0.35934   0.68252   0.05020   1.000
    O3696   O    0.37654   0.67494   0.05538   1.000
    O3697   O    0.68252   0.90795   0.05020   1.000
    O3698   O    0.67494   0.89314   0.05538   1.000
    O3699   O    0.90795   0.35933   0.05020   1.000
    O3700   O    0.89314   0.37654   0.05538   1.000
    O3701   O    0.27380   0.01884   0.04953   1.000
    O3702   O    0.28092   0.02407   0.05819   1.000
    O3703   O    0.01884   0.27380   0.04953   1.000
    O3704   O    0.02408   0.28092   0.05819   1.000
    O3705   O    0.27380   0.65784   0.04953   1.000
    O3706   O    0.28092   0.63682   0.05819   1.000
    O3707   O    0.01884   0.65784   0.04953   1.000
    O3708   O    0.02407   0.63682   0.05819   1.000
    O3709   O    0.65783   0.27380   0.04953   1.000
    O3710   O    0.63681   0.28092   0.05819   1.000
    O3711   O    0.65783   0.01884   0.04953   1.000
    O3712   O    0.63681   0.02407   0.05819   1.000
    O3713   O    0.33959   0.91919   0.06525   1.000
    O3714   O    0.33959   0.67596   0.06525   1.000
    O3715   O    0.67596   0.33959   0.06525   1.000
    O3716   O    0.91920   0.33959   0.06525   1.000
    O3717   O    0.67597   0.91919   0.06525   1.000
    O3718   O    0.91919   0.67596   0.06525   1.000
    O3719   O    0.93914   0.55424   0.06409   1.000
    O3720   O    0.55424   0.44252   0.06409   1.000
    O3721   O    0.93914   0.44252   0.06409   1.000
    O3722   O    0.44252   0.93914   0.06409   1.000
    O3723   O    0.44252   0.55424   0.06409   1.000
    O3724   O    0.55424   0.93914   0.06409   1.000
    O3725   O    0.43340   0.54259   0.06552   1.000
    O3726   O    0.42122   0.53096   0.06822   1.000
    O3727   O    0.43341   0.95849   0.06552   1.000
    O3728   O    0.42122   0.97961   0.06822   1.000
    O3729   O    0.95850   0.43341   0.06552   1.000
    O3730   O    0.97961   0.42122   0.06822   1.000
    O3731   O    0.54258   0.95849   0.06552   1.000
    O3732   O    0.53095   0.97961   0.06822   1.000
    O3733   O    0.95850   0.54259   0.06552   1.000
    O3734   O    0.97960   0.53096   0.06822   1.000
    O3735   O    0.54258   0.43341   0.06552   1.000
    O3736   O    0.53095   0.42122   0.06822   1.000
    O3737   O    0.61332   0.28890   0.06594   1.000
    O3738   O    0.59229   0.29605   0.07115   1.000
    O3739   O    0.28890   0.03184   0.06594   1.000
    O3740   O    0.29605   0.04051   0.07115   1.000
    O3741   O    0.61331   0.03184   0.06594   1.000
    O3742   O    0.59229   0.04051   0.07115   1.000
    O3743   O    0.03184   0.61332   0.06594   1.000
    O3744   O    0.04051   0.59229   0.07115   1.000
    O3745   O    0.28890   0.61332   0.06594   1.000
    O3746   O    0.29605   0.59229   0.07115   1.000
    O3747   O    0.03184   0.28890   0.06594   1.000
    O3748   O    0.04051   0.29605   0.07115   1.000
    O3749   O    0.94305   0.42205   0.07464   1.000
    O3750   O    0.42205   0.56027   0.07464   1.000
    O3751   O    0.42205   0.94305   0.07464   1.000
    O3752   O    0.56027   0.42205   0.07464   1.000
    O3753   O    0.94305   0.56027   0.07464   1.000
    O3754   O    0.56027   0.94305   0.07464   1.000
    O3755   O    0.00950   0.62502   0.07923   1.000
    O3756   O    0.62502   0.28624   0.07923   1.000
    O3757   O    0.00950   0.28624   0.07923   1.000
    O3758   O    0.62503   0.00950   0.07923   1.000
    O3759   O    0.28624   0.62502   0.07923   1.000
    O3760   O    0.28624   0.00950   0.07923   1.000
    O3761   O    0.99804   0.52180   0.07161   1.000
    O3762   O    0.40856   0.52180   0.07161   1.000
    O3763   O    0.99804   0.40856   0.07161   1.000
    O3764   O    0.52180   0.99803   0.07161   1.000
    O3765   O    0.52180   0.40856   0.07161   1.000
    O3766   O    0.40856   0.99803   0.07161   1.000
    O3767   O    0.39763   0.53701   0.08011   1.000
    O3768   O    0.39763   0.98525   0.08011   1.000
    O3769   O    0.53700   0.98525   0.08011   1.000
    O3770   O    0.98525   0.39763   0.08011   1.000
    O3771   O    0.53701   0.39763   0.08011   1.000
    O3772   O    0.98524   0.53701   0.08011   1.000
    O3773   O    0.67017   0.92823   0.08103   1.000
    O3774   O    0.65933   0.91615   0.08530   1.000
    O3775   O    0.67017   0.32056   0.08103   1.000
    O3776   O    0.65933   0.33921   0.08530   1.000
    O3777   O    0.92823   0.67018   0.08103   1.000
    O3778   O    0.91615   0.65933   0.08530   1.000
    O3779   O    0.92823   0.32056   0.08103   1.000
    O3780   O    0.91615   0.33921   0.08530   1.000
    O3781   O    0.32056   0.67018   0.08103   1.000
    O3782   O    0.33921   0.65933   0.08530   1.000
    O3783   O    0.32056   0.92823   0.08103   1.000
    O3784   O    0.33921   0.91615   0.08530   1.000
    O3785   O    0.93033   0.41119   0.08291   1.000
    O3786   O    0.94872   0.39848   0.08640   1.000
    O3787   O    0.41119   0.93034   0.08291   1.000
    O3788   O    0.39848   0.94872   0.08640   1.000
    O3789   O    0.57556   0.41119   0.08291   1.000
    O3790   O    0.56640   0.39848   0.08640   1.000
    O3791   O    0.93034   0.57556   0.08291   1.000
    O3792   O    0.94872   0.56640   0.08640   1.000
    O3793   O    0.41119   0.57556   0.08291   1.000
    O3794   O    0.39848   0.56640   0.08640   1.000
    O3795   O    0.57556   0.93034   0.08291   1.000
    O3796   O    0.56640   0.94872   0.08640   1.000
    O3797   O    0.29620   0.93965   0.09917   1.000
    O3798   O    0.66498   0.29620   0.09917   1.000
    O3799   O    0.93965   0.66499   0.09917   1.000
    O3800   O    0.29619   0.66499   0.09917   1.000
    O3801   O    0.93965   0.29620   0.09917   1.000
    O3802   O    0.66498   0.93965   0.09917   1.000
    O3803   O    0.38626   0.55477   0.08917   1.000
    O3804   O    0.37706   0.54317   0.09062   1.000
    O3805   O    0.96981   0.38626   0.08917   1.000
    O3806   O    0.98913   0.37706   0.09062   1.000
    O3807   O    0.55477   0.38626   0.08917   1.000
    O3808   O    0.54317   0.37706   0.09062   1.000
    O3809   O    0.96981   0.55477   0.08917   1.000
    O3810   O    0.98913   0.54317   0.09062   1.000
    O3811   O    0.38625   0.96981   0.08917   1.000
    O3812   O    0.37706   0.98914   0.09062   1.000
    O3813   O    0.55477   0.96981   0.08917   1.000
    O3814   O    0.54317   0.98914   0.09062   1.000
    O3815   O    0.28420   0.98820   0.09175   1.000
    O3816   O    0.29195   0.99534   0.09862   1.000
    O3817   O    0.28420   0.63584   0.09175   1.000
    O3818   O    0.29195   0.61409   0.09862   1.000
    O3819   O    0.63585   0.98820   0.09175   1.000
    O3820   O    0.61409   0.99534   0.09862   1.000
    O3821   O    0.98821   0.28420   0.09175   1.000
    O3822   O    0.99535   0.29195   0.09862   1.000
    O3823   O    0.63584   0.28420   0.09175   1.000
    O3824   O    0.61409   0.29195   0.09862   1.000
    O3825   O    0.98821   0.63584   0.09175   1.000
    O3826   O    0.99534   0.61409   0.09862   1.000
    O3827   O    0.37418   0.57320   0.09863   1.000
    O3828   O    0.95400   0.37418   0.09863   1.000
    O3829   O    0.37418   0.95400   0.09863   1.000
    O3830   O    0.57319   0.37418   0.09863   1.000
    O3831   O    0.57319   0.95400   0.09863   1.000
    O3832   O    0.95399   0.57320   0.09863   1.000
    O3833   O    0.34326   0.63778   0.10882   1.000
    O3834   O    0.63779   0.34325   0.10882   1.000
    O3835   O    0.34325   0.91014   0.10882   1.000
    O3836   O    0.91014   0.63778   0.10882   1.000
    O3837   O    0.63778   0.91014   0.10882   1.000
    O3838   O    0.91014   0.34325   0.10882   1.000
    O3839   O    0.96184   0.65220   0.10354   1.000
    O3840   O    0.28241   0.65220   0.10354   1.000
    O3841   O    0.65220   0.96184   0.10354   1.000
    O3842   O    0.65220   0.28241   0.10354   1.000
    O3843   O    0.28241   0.96184   0.10354   1.000
    O3844   O    0.96184   0.28241   0.10354   1.000
    O3845   O    0.36274   0.93945   0.10696   1.000
    O3846   O    0.35129   0.95825   0.11100   1.000
    O3847   O    0.59085   0.93945   0.10696   1.000
    O3848   O    0.57946   0.95825   0.11100   1.000
    O3849   O    0.59085   0.36274   0.10696   1.000
    O3850   O    0.57946   0.35129   0.11100   1.000
    O3851   O    0.93945   0.36274   0.10696   1.000
    O3852   O    0.95824   0.35129   0.11100   1.000
    O3853   O    0.36275   0.59085   0.10696   1.000
    O3854   O    0.35130   0.57946   0.11100   1.000
    O3855   O    0.93945   0.59085   0.10696   1.000
    O3856   O    0.95824   0.57946   0.11100   1.000
    O3857   O    0.30113   0.97995   0.12118   1.000
    O3858   O    0.97995   0.30113   0.12118   1.000
    O3859   O    0.30113   0.59774   0.12118   1.000
    O3860   O    0.59774   0.30113   0.12118   1.000
    O3861   O    0.97995   0.59774   0.12118   1.000
    O3862   O    0.59774   0.97995   0.12118   1.000
    O3863   O    0.35209   0.91893   0.11648   1.000
    O3864   O    0.61250   0.35209   0.11648   1.000
    O3865   O    0.91893   0.35209   0.11648   1.000
    O3866   O    0.61250   0.91893   0.11648   1.000
    O3867   O    0.91893   0.61250   0.11648   1.000
    O3868   O    0.35209   0.61250   0.11648   1.000
    O3869   O    0.92680   0.28387   0.12410   1.000
    O3870   O    0.94887   0.27005   0.12882   1.000
    O3871   O    0.28387   0.92680   0.12410   1.000
    O3872   O    0.27005   0.94888   0.12882   1.000
    O3873   O    0.28387   0.66524   0.12410   1.000
    O3874   O    0.27005   0.65226   0.12882   1.000
    O3875   O    0.66524   0.92680   0.12410   1.000
    O3876   O    0.65226   0.94888   0.12882   1.000
    O3877   O    0.92680   0.66524   0.12410   1.000
    O3878   O    0.94888   0.65226   0.12882   1.000
    O3879   O    0.64135   0.29696   0.11962   1.000
    O3880   O    0.66524   0.28387   0.12410   1.000
    O3881   O    0.65225   0.27005   0.12882   1.000
    O3882   O    0.32320   0.58476   0.12591   1.000
    O3883   O    0.96613   0.58476   0.12591   1.000
    O3884   O    0.58476   0.96613   0.12591   1.000
    O3885   O    0.32320   0.96613   0.12591   1.000
    O3886   O    0.96613   0.32320   0.12591   1.000
    O3887   O    0.58476   0.32320   0.12591   1.000
    O3888   O    0.32537   0.92463   0.12500   1.000
    O3889   O    0.33107   0.89791   0.13353   1.000
    O3890   O    0.33986   0.90675   0.14119   1.000
    O3891   O    0.62500   0.92463   0.12500   1.000
    O3892   O    0.63750   0.89791   0.13353   1.000
    O3893   O    0.61222   0.90675   0.14119   1.000
    O3894   O    0.60865   0.95304   0.13039   1.000
    O3895   O    0.92463   0.32537   0.12500   1.000
    O3896   O    0.89791   0.33107   0.13353   1.000
    O3897   O    0.90675   0.33986   0.14119   1.000
    O3898   O    0.30793   0.95304   0.13039   1.000
    O3899   O    0.62500   0.32537   0.12500   1.000
    O3900   O    0.63750   0.33107   0.13353   1.000
    O3901   O    0.61221   0.33986   0.14119   1.000
    O3902   O    0.92463   0.62500   0.12500   1.000
    O3903   O    0.89791   0.63750   0.13353   1.000
    O3904   O    0.90674   0.61222   0.14119   1.000
    O3905   O    0.95304   0.60865   0.13039   1.000
    O3906   O    0.32537   0.62500   0.12500   1.000
    O3907   O    0.30792   0.60865   0.13039   1.000
    O3908   O    0.33107   0.63750   0.13353   1.000
    O3909   O    0.33986   0.61222   0.14119   1.000
    O3910   O    0.95304   0.30792   0.13039   1.000
    O3911   O    0.67054   0.89871   0.13900   1.000
    O3912   O    0.67054   0.29176   0.13900   1.000
    O3913   O    0.29175   0.89871   0.13900   1.000
    O3914   O    0.89870   0.29176   0.13900   1.000
    O3915   O    0.29175   0.67054   0.13900   1.000
    O3916   O    0.89870   0.67054   0.13900   1.000
    O3917   O    0.96759   0.59780   0.14646   1.000
    O3918   O    0.95380   0.58502   0.15084   1.000
    O3919   O    0.96759   0.28815   0.14646   1.000
    O3920   O    0.95381   0.31034   0.15084   1.000
    O3921   O    0.28816   0.96759   0.14646   1.000
    O3922   O    0.31034   0.95380   0.15084   1.000
    O3923   O    0.59780   0.96759   0.14646   1.000
    O3924   O    0.58502   0.95380   0.15084   1.000
    O3925   O    0.59780   0.28815   0.14646   1.000
    O3926   O    0.58502   0.31034   0.15084   1.000
    O3927   O    0.28815   0.59780   0.14646   1.000
    O3928   O    0.31034   0.58502   0.15084   1.000
    O3929   O    0.65916   0.88726   0.14305   1.000
    O3930   O    0.65916   0.31055   0.14305   1.000
    O3931   O    0.88725   0.31055   0.14305   1.000
    O3932   O    0.31055   0.65916   0.14305   1.000
    O3933   O    0.88726   0.65916   0.14305   1.000
    O3934   O    0.31055   0.88726   0.14305   1.000
    O3935   O    0.25466   0.95805   0.15139   1.000
    O3936   O    0.63591   0.95805   0.15139   1.000
    O3937   O    0.25465   0.63591   0.15139   1.000
    O3938   O    0.95805   0.63591   0.15139   1.000
    O3939   O    0.95805   0.25466   0.15139   1.000
    O3940   O    0.63591   0.25466   0.15139   1.000
    O3941   O    0.87582   0.29601   0.15137   1.000
    O3942   O    0.29601   0.67680   0.15137   1.000
    O3943   O    0.67680   0.87582   0.15137   1.000
    O3944   O    0.87582   0.67680   0.15137   1.000
    O3945   O    0.29600   0.87582   0.15137   1.000
    O3946   O    0.67680   0.29601   0.15137   1.000
    O3947   O    0.26087   0.70683   0.15938   1.000
    O3948   O    0.87294   0.70683   0.15938   1.000
    O3949   O    0.87294   0.26087   0.15938   1.000
    O3950   O    0.70682   0.87294   0.15938   1.000
    O3951   O    0.70683   0.26087   0.15938   1.000
    O3952   O    0.26087   0.87294   0.15938   1.000
    O3953   O    0.26179   0.96580   0.15826   1.000
    O3954   O    0.61415   0.26179   0.15826   1.000
    O3955   O    0.96580   0.61416   0.15826   1.000
    O3956   O    0.96580   0.26179   0.15826   1.000
    O3957   O    0.61416   0.96580   0.15826   1.000
    O3958   O    0.26179   0.61416   0.15826   1.000
    O3959   O    0.91078   0.59068   0.16471   1.000
    O3960   O    0.33385   0.59068   0.16471   1.000
    O3961   O    0.33385   0.91078   0.16471   1.000
    O3962   O    0.91078   0.33384   0.16471   1.000
    O3963   O    0.59068   0.91078   0.16471   1.000
    O3964   O    0.59068   0.33384   0.16471   1.000
    O3965   O    0.28019   0.69523   0.16084   1.000
    O3966   O    0.30128   0.68360   0.16361   1.000
    O3967   O    0.28019   0.86374   0.16084   1.000
    O3968   O    0.30128   0.85151   0.16361   1.000
    O3969   O    0.86374   0.69523   0.16084   1.000
    O3970   O    0.85152   0.68360   0.16361   1.000
    O3971   O    0.86374   0.28020   0.16084   1.000
    O3972   O    0.85152   0.30128   0.16361   1.000
    O3973   O    0.69523   0.28020   0.16084   1.000
    O3974   O    0.68360   0.30128   0.16361   1.000
    O3975   O    0.69523   0.86374   0.16084   1.000
    O3976   O    0.68360   0.85151   0.16361   1.000
    O3977   O    0.96376   0.24050   0.17077   1.000
    O3978   O    0.62498   0.24050   0.17077   1.000
    O3979   O    0.24050   0.62498   0.17077   1.000
    O3980   O    0.24050   0.96376   0.17077   1.000
    O3981   O    0.96376   0.62498   0.17077   1.000
    O3982   O    0.62497   0.96376   0.17077   1.000
    O3983   O    0.26476   0.71300   0.16989   1.000
    O3984   O    0.85237   0.71300   0.16989   1.000
    O3985   O    0.85237   0.26476   0.16989   1.000
    O3986   O    0.71299   0.85237   0.16989   1.000
    O3987   O    0.71300   0.26476   0.16989   1.000
    O3988   O    0.26475   0.85237   0.16989   1.000
    O3989   O    0.67444   0.83881   0.16709   1.000
    O3990   O    0.31966   0.67444   0.16709   1.000
    O3991   O    0.31967   0.83881   0.16709   1.000
    O3992   O    0.83881   0.67444   0.16709   1.000
    O3993   O    0.83881   0.31967   0.16709   1.000
    O3994   O    0.67444   0.31967   0.16709   1.000
    O3995   O    0.92944   0.57983   0.16897   1.000
    O3996   O    0.92944   0.32177   0.16897   1.000
    O3997   O    0.57982   0.92944   0.16897   1.000
    O3998   O    0.57982   0.32177   0.16897   1.000
    O3999   O    0.32177   0.57983   0.16897   1.000
    O4000   O    0.32177   0.92944   0.16897   1.000
    O4001   O    0.68973   0.30695   0.17537   1.000
    O4002   O    0.68973   0.82795   0.17537   1.000
    O4003   O    0.30695   0.68973   0.17537   1.000
    O4004   O    0.82795   0.68973   0.17537   1.000
    O4005   O    0.30695   0.82795   0.17537   1.000
    O4006   O    0.82795   0.30695   0.17537   1.000
    O4007   O    0.65770   0.95395   0.17885   1.000
    O4008   O    0.95395   0.65771   0.17885   1.000
    O4009   O    0.20949   0.65771   0.17885   1.000
    O4010   O    0.95395   0.20949   0.17885   1.000
    O4011   O    0.20949   0.95395   0.17885   1.000
    O4012   O    0.65770   0.20949   0.17885   1.000
    O4013   O    0.33080   0.91041   0.18476   1.000
    O4014   O    0.91041   0.33081   0.18476   1.000
    O4015   O    0.57404   0.91041   0.18476   1.000
    O4016   O    0.91041   0.57403   0.18476   1.000
    O4017   O    0.57404   0.33081   0.18476   1.000
    O4018   O    0.33080   0.57403   0.18476   1.000
    O4019   O    0.25196   0.72820   0.17840   1.000
    O4020   O    0.27040   0.71904   0.18178   1.000
    O4021   O    0.72820   0.25196   0.17840   1.000
    O4022   O    0.71904   0.27039   0.18178   1.000
    O4023   O    0.72820   0.84144   0.17840   1.000
    O4024   O    0.71904   0.82878   0.18178   1.000
    O4025   O    0.25196   0.84144   0.17840   1.000
    O4026   O    0.27039   0.82878   0.18178   1.000
    O4027   O    0.84144   0.72820   0.17840   1.000
    O4028   O    0.82878   0.71904   0.18178   1.000
    O4029   O    0.84144   0.25196   0.17840   1.000
    O4030   O    0.82878   0.27039   0.18178   1.000
    O4031   O    0.96110   0.63668   0.18406   1.000
    O4032   O    0.96908   0.61318   0.19182   1.000
    O4033   O    0.63669   0.96110   0.18406   1.000
    O4034   O    0.61318   0.96908   0.19182   1.000
    O4035   O    0.21816   0.96110   0.18406   1.000
    O4036   O    0.22592   0.96908   0.19182   1.000
    O4037   O    0.21816   0.63668   0.18406   1.000
    O4038   O    0.22592   0.61318   0.19182   1.000
    O4039   O    0.96110   0.21816   0.18406   1.000
    O4040   O    0.96908   0.22593   0.19182   1.000
    O4041   O    0.63668   0.21816   0.18406   1.000
    O4042   O    0.61318   0.22593   0.19182   1.000
    O4043   O    0.29150   0.81659   0.18449   1.000
    O4044   O    0.31085   0.80748   0.18591   1.000
    O4045   O    0.70742   0.29151   0.18449   1.000
    O4046   O    0.69576   0.31085   0.18591   1.000
    O4047   O    0.81659   0.70742   0.18449   1.000
    O4048   O    0.80748   0.69576   0.18591   1.000
    O4049   O    0.81659   0.29151   0.18449   1.000
    O4050   O    0.80748   0.31085   0.18591   1.000
    O4051   O    0.29150   0.70742   0.18449   1.000
    O4052   O    0.31085   0.69576   0.18591   1.000
    O4053   O    0.70741   0.81659   0.18449   1.000
    O4054   O    0.69575   0.80748   0.18591   1.000
    O4055   O    0.19715   0.64843   0.19716   1.000
    O4056   O    0.19716   0.95726   0.19716   1.000
    O4057   O    0.64843   0.95726   0.19716   1.000
    O4058   O    0.95726   0.64843   0.19716   1.000
    O4059   O    0.95726   0.19715   0.19716   1.000
    O4060   O    0.64843   0.19715   0.19716   1.000
    O4061   O    0.72493   0.27563   0.19493   1.000
    O4062   O    0.80451   0.72493   0.19493   1.000
    O4063   O    0.27563   0.80451   0.19493   1.000
    O4064   O    0.80451   0.27563   0.19493   1.000
    O4065   O    0.27563   0.72493   0.19493   1.000
    O4066   O    0.72493   0.80451   0.19493   1.000
    O4067   O    0.57506   0.87346   0.19462   1.000
    O4068   O    0.87346   0.57506   0.19462   1.000
    O4069   O    0.35686   0.87346   0.19462   1.000
    O4070   O    0.57506   0.35686   0.19462   1.000
    O4071   O    0.35685   0.57506   0.19462   1.000
    O4072   O    0.87346   0.35686   0.19462   1.000
    O4073   O    0.34205   0.56748   0.19980   1.000
    O4074   O    0.32594   0.55777   0.20749   1.000
    O4075   O    0.89067   0.34205   0.19980   1.000
    O4076   O    0.90881   0.32594   0.20749   1.000
    O4077   O    0.56748   0.34205   0.19980   1.000
    O4078   O    0.55777   0.32594   0.20749   1.000
    O4079   O    0.89067   0.56748   0.19980   1.000
    O4080   O    0.90881   0.55777   0.20749   1.000
    O4081   O    0.34205   0.89067   0.19980   1.000
    O4082   O    0.32594   0.90881   0.20749   1.000
    O4083   O    0.56748   0.89067   0.19980   1.000
    O4084   O    0.55776   0.90881   0.20749   1.000
    O4085   O    0.97620   0.23116   0.20048   1.000
    O4086   O    0.59217   0.97620   0.20048   1.000
    O4087   O    0.97620   0.59216   0.20048   1.000
    O4088   O    0.23116   0.59216   0.20048   1.000
    O4089   O    0.23116   0.97620   0.20048   1.000
    O4090   O    0.59217   0.23116   0.20048   1.000
    O4091   O    0.60143   0.97322   0.21268   1.000
    O4092   O    0.97322   0.21268   0.21268   1.000
    O4093   O    0.60143   0.21268   0.21268   1.000
    O4094   O    0.97322   0.60143   0.21268   1.000
    O4095   O    0.21268   0.60143   0.21268   1.000
    O4096   O    0.21267   0.97322   0.21268   1.000
    O4097   O    0.87062   0.35274   0.21426   1.000
    O4098   O    0.35274   0.87063   0.21426   1.000
    O4099   O    0.35274   0.56237   0.21426   1.000
    O4100   O    0.56237   0.87063   0.21426   1.000
    O4101   O    0.87062   0.56237   0.21426   1.000
    O4102   O    0.56236   0.35274   0.21426   1.000
    O4103   O    0.79283   0.26063   0.20554   1.000
    O4104   O    0.78186   0.28033   0.20764   1.000
    O4105   O    0.74100   0.79283   0.20554   1.000
    O4106   O    0.73016   0.78186   0.20764   1.000
    O4107   O    0.74101   0.26063   0.20554   1.000
    O4108   O    0.73016   0.28033   0.20764   1.000
    O4109   O    0.26063   0.74100   0.20554   1.000
    O4110   O    0.28033   0.73016   0.20764   1.000
    O4111   O    0.26063   0.79283   0.20554   1.000
    O4112   O    0.28033   0.78186   0.20764   1.000
    O4113   O    0.79283   0.74100   0.20554   1.000
    O4114   O    0.78187   0.73016   0.20764   1.000
    O4115   O    0.23955   0.78177   0.21890   1.000
    O4116   O    0.23955   0.75978   0.21890   1.000
    O4117   O    0.75978   0.23955   0.21890   1.000
    O4118   O    0.78176   0.75978   0.21890   1.000
    O4119   O    0.78176   0.23955   0.21890   1.000
    O4120   O    0.75978   0.78177   0.21890   1.000
    O4121   O    0.65771   0.95395   0.20949   1.000
    O4122   O    0.63669   0.96110   0.21816   1.000
    O4123   O    0.95395   0.65771   0.20949   1.000
    O4124   O    0.96110   0.63668   0.21816   1.000
    O4125   O    0.65770   0.17885   0.20949   1.000
    O4126   O    0.63669   0.18406   0.21816   1.000
    O4127   O    0.95395   0.17885   0.20949   1.000
    O4128   O    0.96110   0.18406   0.21816   1.000
    O4129   O    0.17885   0.95395   0.20949   1.000
    O4130   O    0.18406   0.96110   0.21816   1.000
    O4131   O    0.17885   0.65771   0.20949   1.000
    O4132   O    0.18406   0.63668   0.21816   1.000
    O4133   O    0.28881   0.75450   0.22405   1.000
    O4134   O    0.28881   0.73264   0.22405   1.000
    O4135   O    0.73264   0.75450   0.22405   1.000
    O4136   O    0.75450   0.73264   0.22405   1.000
    O4137   O    0.73264   0.28882   0.22405   1.000
    O4138   O    0.75450   0.28882   0.22405   1.000
    O4139   O    0.31186   0.54814   0.21601   1.000
    O4140   O    0.54814   0.31186   0.21601   1.000
    O4141   O    0.92400   0.54814   0.21601   1.000
    O4142   O    0.54814   0.92400   0.21601   1.000
    O4143   O    0.31186   0.92400   0.21601   1.000
    O4144   O    0.92399   0.31186   0.21601   1.000
    O4145   O    0.32056   0.90687   0.22972   1.000
    O4146   O    0.90686   0.54285   0.22972   1.000
    O4147   O    0.54285   0.90687   0.22972   1.000
    O4148   O    0.90686   0.32057   0.22972   1.000
    O4149   O    0.32056   0.54285   0.22972   1.000
    O4150   O    0.54285   0.32057   0.22972   1.000
    O4151   O    0.96908   0.19181   0.22593   1.000
    O4152   O    0.97620   0.20048   0.23116   1.000
    O4153   O    0.19181   0.96908   0.22593   1.000
    O4154   O    0.20048   0.97620   0.23116   1.000
    O4155   O    0.61318   0.96908   0.22593   1.000
    O4156   O    0.59217   0.97620   0.23116   1.000
    O4157   O    0.61318   0.19181   0.22593   1.000
    O4158   O    0.59217   0.20048   0.23116   1.000
    O4159   O    0.96908   0.61319   0.22593   1.000
    O4160   O    0.97620   0.59217   0.23116   1.000
    O4161   O    0.19181   0.61319   0.22593   1.000
    O4162   O    0.20047   0.59217   0.23116   1.000
    O4163   O    0.55744   0.36126   0.22783   1.000
    O4164   O    0.54790   0.34705   0.23655   1.000
    O4165   O    0.36126   0.55744   0.22783   1.000
    O4166   O    0.34705   0.54790   0.23655   1.000
    O4167   O    0.85347   0.36126   0.22783   1.000
    O4168   O    0.86850   0.34705   0.23655   1.000
    O4169   O    0.36126   0.85347   0.22783   1.000
    O4170   O    0.34705   0.86850   0.23655   1.000
    O4171   O    0.55743   0.85347   0.22783   1.000
    O4172   O    0.54789   0.86850   0.23655   1.000
    O4173   O    0.85347   0.55744   0.22783   1.000
    O4174   O    0.86850   0.54790   0.23655   1.000
    O4175   O    0.96376   0.62498   0.24050   1.000
    O4176   O    0.62497   0.96376   0.24050   1.000
    O4177   O    0.96376   0.17077   0.24050   1.000
    O4178   O    0.17077   0.62498   0.24050   1.000
    O4179   O    0.62498   0.17077   0.24050   1.000
    O4180   O    0.17077   0.96376   0.24050   1.000
    O4181   O    0.21890   0.78177   0.23955   1.000
    O4182   O    0.21890   0.75978   0.23955   1.000
    O4183   O    0.78176   0.75978   0.23955   1.000
    O4184   O    0.75978   0.78177   0.23955   1.000
    O4185   O    0.78177   0.21890   0.23955   1.000
    O4186   O    0.75979   0.21890   0.23955   1.000
    O4187   O    0.27026   0.74300   0.24375   1.000
    O4188   O    0.29121   0.74180   0.24697   1.000
    O4189   O    0.29121   0.72002   0.24697   1.000
    O4190   O    0.74299   0.74300   0.24375   1.000
    O4191   O    0.72003   0.74180   0.24697   1.000
    O4192   O    0.74180   0.72002   0.24697   1.000
    O4193   O    0.74299   0.27026   0.24375   1.000
    O4194   O    0.72002   0.29121   0.24697   1.000
    O4195   O    0.74180   0.29121   0.24697   1.000
    O4196   O    0.88659   0.33098   0.24433   1.000
    O4197   O    0.90376   0.31642   0.24962   1.000
    O4198   O    0.88660   0.53809   0.24433   1.000
    O4199   O    0.90376   0.53020   0.24962   1.000
    O4200   O    0.53810   0.33098   0.24433   1.000
    O4201   O    0.53020   0.31642   0.24962   1.000
    O4202   O    0.53809   0.88660   0.24433   1.000
    O4203   O    0.53020   0.90376   0.24962   1.000
    O4204   O    0.33098   0.88660   0.24433   1.000
    O4205   O    0.31641   0.90376   0.24962   1.000
    O4206   O    0.33098   0.53809   0.24433   1.000
    O4207   O    0.31642   0.53020   0.24962   1.000
    O4208   O    0.17839   0.72820   0.25197   1.000
    O4209   O    0.17839   0.84144   0.25197   1.000
    O4210   O    0.84144   0.72820   0.25197   1.000
    O4211   O    0.72820   0.84144   0.25197   1.000
    O4212   O    0.84144   0.17840   0.25197   1.000
    O4213   O    0.72820   0.17840   0.25197   1.000
    O4214   O    0.53409   0.86535   0.25988   1.000
    O4215   O    0.86535   0.34069   0.25988   1.000
    O4216   O    0.86534   0.53408   0.25988   1.000
    O4217   O    0.53408   0.34069   0.25988   1.000
    O4218   O    0.34069   0.86535   0.25988   1.000
    O4219   O    0.34069   0.53408   0.25988   1.000
    O4220   O    0.79283   0.74100   0.26063   1.000
    O4221   O    0.74100   0.79283   0.26063   1.000
    O4222   O    0.79283   0.20554   0.26063   1.000
    O4223   O    0.74101   0.20554   0.26063   1.000
    O4224   O    0.20553   0.79283   0.26063   1.000
    O4225   O    0.20554   0.74100   0.26063   1.000
    O4226   O    0.74299   0.24375   0.27027   1.000
    O4227   O    0.74299   0.74300   0.27027   1.000
    O4228   O    0.24374   0.74300   0.27027   1.000
    O4229   O    0.15139   0.63591   0.25466   1.000
    O4230   O    0.15826   0.61415   0.26180   1.000
    O4231   O    0.63591   0.15138   0.25466   1.000
    O4232   O    0.61415   0.15825   0.26180   1.000
    O4233   O    0.95805   0.15138   0.25466   1.000
    O4234   O    0.96580   0.15825   0.26180   1.000
    O4235   O    0.95805   0.63591   0.25466   1.000
    O4236   O    0.96580   0.61415   0.26180   1.000
    O4237   O    0.63591   0.95805   0.25466   1.000
    O4238   O    0.61416   0.96580   0.26180   1.000
    O4239   O    0.15139   0.95805   0.25466   1.000
    O4240   O    0.15826   0.96580   0.26180   1.000
    O4241   O    0.15938   0.70683   0.26087   1.000
    O4242   O    0.70682   0.15938   0.26087   1.000
    O4243   O    0.70682   0.87294   0.26087   1.000
    O4244   O    0.87294   0.15938   0.26087   1.000
    O4245   O    0.87294   0.70683   0.26087   1.000
    O4246   O    0.15938   0.87294   0.26087   1.000
    O4247   O    0.65225   0.12882   0.27005   1.000
    O4248   O    0.12882   0.94888   0.27005   1.000
    O4249   O    0.12882   0.65225   0.27005   1.000
    O4250   O    0.65226   0.94888   0.27005   1.000
    O4251   O    0.94887   0.65225   0.27005   1.000
    O4252   O    0.94887   0.12882   0.27005   1.000
    O4253   O    0.65338   0.31956   0.26593   1.000
    O4254   O    0.76114   0.31956   0.26593   1.000
    O4255   O    0.31956   0.76113   0.26593   1.000
    O4256   O    0.65338   0.76113   0.26593   1.000
    O4257   O    0.31956   0.65338   0.26593   1.000
    O4258   O    0.76114   0.65338   0.26593   1.000
    O4259   O    0.28673   0.74777   0.26901   1.000
    O4260   O    0.69649   0.74777   0.26901   1.000
    O4261   O    0.74778   0.69649   0.26901   1.000
    O4262   O    0.69649   0.28673   0.26901   1.000
    O4263   O    0.74777   0.28673   0.26901   1.000
    O4264   O    0.28673   0.69649   0.26901   1.000
    O4265   O    0.16989   0.71299   0.26476   1.000
    O4266   O    0.18178   0.71905   0.27040   1.000
    O4267   O    0.71300   0.85237   0.26476   1.000
    O4268   O    0.71904   0.82878   0.27040   1.000
    O4269   O    0.85237   0.16989   0.26476   1.000
    O4270   O    0.82878   0.18178   0.27040   1.000
    O4271   O    0.16989   0.85237   0.26476   1.000
    O4272   O    0.18178   0.82878   0.27040   1.000
    O4273   O    0.85237   0.71299   0.26476   1.000
    O4274   O    0.82878   0.71905   0.27040   1.000
    O4275   O    0.71300   0.16989   0.26476   1.000
    O4276   O    0.71904   0.18178   0.27040   1.000
    O4277   O    0.16083   0.69523   0.28020   1.000
    O4278   O    0.86374   0.16084   0.28020   1.000
    O4279   O    0.69523   0.86375   0.28020   1.000
    O4280   O    0.69523   0.16084   0.28020   1.000
    O4281   O    0.86374   0.69523   0.28020   1.000
    O4282   O    0.16083   0.86375   0.28020   1.000
    O4283   O    0.96759   0.59780   0.28816   1.000
    O4284   O    0.59780   0.14646   0.28816   1.000
    O4285   O    0.14646   0.59780   0.28816   1.000
    O4286   O    0.14646   0.96759   0.28816   1.000
    O4287   O    0.96759   0.14646   0.28816   1.000
    O4288   O    0.59780   0.96759   0.28816   1.000
    O4289   O    0.01884   0.04953   0.27380   1.000
    O4290   O    0.65783   0.01884   0.27380   1.000
    O4291   O    0.65783   0.04953   0.27380   1.000
    O4292   O    0.04953   0.65783   0.27380   1.000
    O4293   O    0.01884   0.65783   0.27380   1.000
    O4294   O    0.04952   0.01884   0.27380   1.000
    O4295   O    0.72493   0.80451   0.27563   1.000
    O4296   O    0.73016   0.78186   0.28033   1.000
    O4297   O    0.80451   0.19492   0.27563   1.000
    O4298   O    0.78186   0.20764   0.28033   1.000
    O4299   O    0.19493   0.72493   0.27563   1.000
    O4300   O    0.20764   0.73016   0.28033   1.000
    O4301   O    0.72493   0.19492   0.27563   1.000
    O4302   O    0.73016   0.20764   0.28033   1.000
    O4303   O    0.19492   0.80451   0.27563   1.000
    O4304   O    0.20764   0.78186   0.28033   1.000
    O4305   O    0.80451   0.72493   0.27563   1.000
    O4306   O    0.78187   0.73016   0.28033   1.000
    O4307   O    0.77387   0.61594   0.27834   1.000
    O4308   O    0.77387   0.33186   0.27834   1.000
    O4309   O    0.33186   0.77387   0.27834   1.000
    O4310   O    0.33186   0.61594   0.27834   1.000
    O4311   O    0.61594   0.77387   0.27834   1.000
    O4312   O    0.61594   0.33186   0.27834   1.000
    O4313   O    0.84482   0.34749   0.27525   1.000
    O4314   O    0.86231   0.33639   0.28160   1.000
    O4315   O    0.53243   0.34749   0.27525   1.000
    O4316   O    0.51971   0.33639   0.28160   1.000
    O4317   O    0.34749   0.84482   0.27525   1.000
    O4318   O    0.33639   0.86231   0.28160   1.000
    O4319   O    0.84482   0.53243   0.27525   1.000
    O4320   O    0.86231   0.51970   0.28160   1.000
    O4321   O    0.53243   0.84482   0.27525   1.000
    O4322   O    0.51971   0.86231   0.28160   1.000
    O4323   O    0.34749   0.53243   0.27525   1.000
    O4324   O    0.33639   0.51970   0.28160   1.000
    O4325   O    0.63470   0.31814   0.27973   1.000
    O4326   O    0.65557   0.30164   0.28243   1.000
    O4327   O    0.76744   0.31814   0.27973   1.000
    O4328   O    0.76037   0.30164   0.28243   1.000
    O4329   O    0.31814   0.76744   0.27973   1.000
    O4330   O    0.30164   0.76037   0.28243   1.000
    O4331   O    0.31814   0.63470   0.27973   1.000
    O4332   O    0.30164   0.65556   0.28243   1.000
    O4333   O    0.63470   0.76744   0.27973   1.000
    O4334   O    0.65556   0.76037   0.28243   1.000
    O4335   O    0.76744   0.63470   0.27973   1.000
    O4336   O    0.76037   0.65556   0.28243   1.000
    O4337   O    0.03732   0.03732   0.27678   1.000
    O4338   O    0.02407   0.05819   0.28092   1.000
    O4339   O    0.05818   0.02407   0.28092   1.000
    O4340   O    0.64857   0.03732   0.27678   1.000
    O4341   O    0.63681   0.05819   0.28092   1.000
    O4342   O    0.03733   0.64857   0.27678   1.000
    O4343   O    0.05818   0.63682   0.28092   1.000
    O4344   O    0.02407   0.63682   0.28092   1.000
    O4345   O    0.63681   0.02407   0.28092   1.000
    O4346   O    0.81806   0.53346   0.29201   1.000
    O4347   O    0.35647   0.81806   0.29201   1.000
    O4348   O    0.35648   0.53346   0.29201   1.000
    O4349   O    0.53346   0.35647   0.29201   1.000
    O4350   O    0.81806   0.35647   0.29201   1.000
    O4351   O    0.53346   0.81806   0.29201   1.000
    O4352   O    0.18449   0.70742   0.29151   1.000
    O4353   O    0.70741   0.18448   0.29151   1.000
    O4354   O    0.81659   0.18448   0.29151   1.000
    O4355   O    0.81660   0.70742   0.29151   1.000
    O4356   O    0.18449   0.81659   0.29151   1.000
    O4357   O    0.70741   0.81659   0.29151   1.000
    O4358   O    0.67661   0.28482   0.28483   1.000
    O4359   O    0.69649   0.26901   0.28673   1.000
    O4360   O    0.28482   0.67660   0.28483   1.000
    O4361   O    0.26900   0.69649   0.28673   1.000
    O4362   O    0.75375   0.28482   0.28483   1.000
    O4363   O    0.74777   0.26901   0.28673   1.000
    O4364   O    0.28482   0.75374   0.28483   1.000
    O4365   O    0.26901   0.74778   0.28673   1.000
    O4366   O    0.67660   0.75374   0.28483   1.000
    O4367   O    0.69649   0.74778   0.28673   1.000
    O4368   O    0.75374   0.67660   0.28483   1.000
    O4369   O    0.74778   0.69649   0.28673   1.000
    O4370   O    0.65220   0.96185   0.28241   1.000
    O4371   O    0.63585   0.98821   0.28420   1.000
    O4372   O    0.65220   0.10354   0.28241   1.000
    O4373   O    0.63584   0.09174   0.28420   1.000
    O4374   O    0.10354   0.96185   0.28241   1.000
    O4375   O    0.09174   0.98821   0.28420   1.000
    O4376   O    0.96184   0.65220   0.28241   1.000
    O4377   O    0.98820   0.63585   0.28420   1.000
    O4378   O    0.10354   0.65220   0.28241   1.000
    O4379   O    0.09175   0.63585   0.28420   1.000
    O4380   O    0.96184   0.10354   0.28241   1.000
    O4381   O    0.98821   0.09174   0.28420   1.000
    O4382   O    0.66524   0.92680   0.28387   1.000
    O4383   O    0.66498   0.93966   0.29620   1.000
    O4384   O    0.12409   0.92680   0.28387   1.000
    O4385   O    0.09917   0.93966   0.29620   1.000
    O4386   O    0.92680   0.12409   0.28387   1.000
    O4387   O    0.93965   0.09917   0.29620   1.000
    O4388   O    0.92680   0.66524   0.28387   1.000
    O4389   O    0.93966   0.66498   0.29620   1.000
    O4390   O    0.94207   0.64135   0.29696   1.000
    O4391   O    0.12410   0.66524   0.28387   1.000
    O4392   O    0.09916   0.66498   0.29620   1.000
    O4393   O    0.11962   0.64135   0.29696   1.000
    O4394   O    0.66524   0.12409   0.28387   1.000
    O4395   O    0.66498   0.09917   0.29620   1.000
    O4396   O    0.64135   0.11961   0.29696   1.000
    O4397   O    0.67054   0.13900   0.29176   1.000
    O4398   O    0.89870   0.67054   0.29176   1.000
    O4399   O    0.13900   0.89871   0.29176   1.000
    O4400   O    0.67054   0.89871   0.29176   1.000
    O4401   O    0.89870   0.13900   0.29176   1.000
    O4402   O    0.13900   0.67054   0.29176   1.000
    O4403   O    0.61389   0.31535   0.29616   1.000
    O4404   O    0.77458   0.61389   0.29616   1.000
    O4405   O    0.61389   0.77458   0.29616   1.000
    O4406   O    0.31535   0.61389   0.29616   1.000
    O4407   O    0.31536   0.77458   0.29616   1.000
    O4408   O    0.77459   0.31535   0.29616   1.000
    O4409   O    0.62502   0.00950   0.28624   1.000
    O4410   O    0.61331   0.03184   0.28890   1.000
    O4411   O    0.07923   0.62503   0.28624   1.000
    O4412   O    0.06594   0.61332   0.28890   1.000
    O4413   O    0.00950   0.07923   0.28624   1.000
    O4414   O    0.03184   0.06594   0.28890   1.000
    O4415   O    0.07923   0.00950   0.28624   1.000
    O4416   O    0.06594   0.03184   0.28890   1.000
    O4417   O    0.62502   0.07923   0.28624   1.000
    O4418   O    0.61332   0.06594   0.28890   1.000
    O4419   O    0.00950   0.62503   0.28624   1.000
    O4420   O    0.03184   0.61332   0.28890   1.000
    O4421   O    0.61409   0.99534   0.29195   1.000
    O4422   O    0.99534   0.09861   0.29195   1.000
    O4423   O    0.09862   0.99534   0.29195   1.000
    O4424   O    0.61409   0.09861   0.29195   1.000
    O4425   O    0.09862   0.61409   0.29195   1.000
    O4426   O    0.99534   0.61409   0.29195   1.000
    O4427   O    0.75450   0.73263   0.28882   1.000
    O4428   O    0.22405   0.75449   0.28882   1.000
    O4429   O    0.73263   0.75449   0.28882   1.000
    O4430   O    0.22405   0.73263   0.28882   1.000
    O4431   O    0.73263   0.22405   0.28882   1.000
    O4432   O    0.75450   0.22405   0.28882   1.000
    O4433   O    0.24696   0.74180   0.29121   1.000
    O4434   O    0.24696   0.72003   0.29121   1.000
    O4435   O    0.74180   0.24696   0.29121   1.000
    O4436   O    0.72003   0.24696   0.29121   1.000
    O4437   O    0.74180   0.72003   0.29121   1.000
    O4438   O    0.72003   0.74180   0.29121   1.000
    O4439   O    0.65557   0.28242   0.30164   1.000
    O4440   O    0.28243   0.65557   0.30164   1.000
    O4441   O    0.76037   0.65557   0.30164   1.000
    O4442   O    0.65557   0.76037   0.30164   1.000
    O4443   O    0.76037   0.28242   0.30164   1.000
    O4444   O    0.28243   0.76037   0.30164   1.000
    O4445   O    0.50198   0.32843   0.30795   1.000
    O4446   O    0.86164   0.32843   0.30795   1.000
    O4447   O    0.86164   0.50198   0.30795   1.000
    O4448   O    0.32843   0.50198   0.30795   1.000
    O4449   O    0.32843   0.86164   0.30795   1.000
    O4450   O    0.50198   0.86164   0.30795   1.000
    O4451   O    0.15137   0.67680   0.29601   1.000
    O4452   O    0.16360   0.68360   0.30128   1.000
    O4453   O    0.87582   0.67680   0.29601   1.000
    O4454   O    0.85151   0.68360   0.30128   1.000
    O4455   O    0.15137   0.87582   0.29601   1.000
    O4456   O    0.16360   0.85152   0.30128   1.000
    O4457   O    0.87582   0.15137   0.29601   1.000
    O4458   O    0.85152   0.16360   0.30128   1.000
    O4459   O    0.67681   0.87582   0.29601   1.000
    O4460   O    0.68360   0.85152   0.30128   1.000
    O4461   O    0.67680   0.15137   0.29601   1.000
    O4462   O    0.68360   0.16360   0.30128   1.000
    O4463   O    0.05285   0.60157   0.29274   1.000
    O4464   O    0.07115   0.59230   0.29605   1.000
    O4465   O    0.60157   0.05284   0.29274   1.000
    O4466   O    0.59230   0.04051   0.29605   1.000
    O4467   O    0.04051   0.59230   0.29605   1.000
    O4468   O    0.59230   0.07115   0.29605   1.000
    O4469   O    0.05285   0.05284   0.29274   1.000
    O4470   O    0.07115   0.04051   0.29605   1.000
    O4471   O    0.04051   0.07115   0.29605   1.000
    O4472   O    0.12118   0.97995   0.30113   1.000
    O4473   O    0.97995   0.12118   0.30113   1.000
    O4474   O    0.59775   0.97995   0.30113   1.000
    O4475   O    0.12118   0.59774   0.30113   1.000
    O4476   O    0.59775   0.12118   0.30113   1.000
    O4477   O    0.97995   0.59774   0.30113   1.000
    O4478   O    0.88726   0.65916   0.31055   1.000
    O4479   O    0.65915   0.88726   0.31055   1.000
    O4480   O    0.14304   0.88726   0.31055   1.000
    O4481   O    0.14304   0.65916   0.31055   1.000
    O4482   O    0.65915   0.14304   0.31055   1.000
    O4483   O    0.88726   0.14304   0.31055   1.000
    O4484   O    0.80402   0.46217   0.30229   1.000
    O4485   O    0.80402   0.43152   0.30229   1.000
    O4486   O    0.43152   0.46217   0.30229   1.000
    O4487   O    0.43152   0.80402   0.30229   1.000
    O4488   O    0.46217   0.43152   0.30229   1.000
    O4489   O    0.46217   0.80402   0.30229   1.000
    O4490   O    0.17536   0.68973   0.30695   1.000
    O4491   O    0.18591   0.69576   0.31086   1.000
    O4492   O    0.82795   0.17537   0.30695   1.000
    O4493   O    0.80748   0.18591   0.31086   1.000
    O4494   O    0.17536   0.82795   0.30695   1.000
    O4495   O    0.18591   0.80748   0.31086   1.000
    O4496   O    0.68973   0.82795   0.30695   1.000
    O4497   O    0.69575   0.80748   0.31086   1.000
    O4498   O    0.68973   0.17537   0.30695   1.000
    O4499   O    0.69576   0.18591   0.31086   1.000
    O4500   O    0.82795   0.68973   0.30695   1.000
    O4501   O    0.80748   0.69576   0.31086   1.000
    O4502   O    0.79744   0.54795   0.30518   1.000
    O4503   O    0.78932   0.57153   0.31071   1.000
    O4504   O    0.79744   0.34945   0.30518   1.000
    O4505   O    0.78932   0.32844   0.31071   1.000
    O4506   O    0.34945   0.79744   0.30518   1.000
    O4507   O    0.32844   0.78933   0.31071   1.000
    O4508   O    0.54795   0.34945   0.30518   1.000
    O4509   O    0.57153   0.32844   0.31071   1.000
    O4510   O    0.54795   0.79744   0.30518   1.000
    O4511   O    0.57153   0.78933   0.31071   1.000
    O4512   O    0.34944   0.54795   0.30518   1.000
    O4513   O    0.32844   0.57153   0.31071   1.000
    O4514   O    0.44186   0.81170   0.30458   1.000
    O4515   O    0.45235   0.82137   0.30774   1.000
    O4516   O    0.44186   0.44186   0.30458   1.000
    O4517   O    0.41854   0.45236   0.30774   1.000
    O4518   O    0.81170   0.44186   0.30458   1.000
    O4519   O    0.82137   0.45236   0.30774   1.000
    O4520   O    0.45235   0.41855   0.30774   1.000
    O4521   O    0.41855   0.82137   0.30774   1.000
    O4522   O    0.82137   0.41855   0.30774   1.000
    O4523   O    0.54814   0.92399   0.31186   1.000
    O4524   O    0.92399   0.54814   0.31186   1.000
    O4525   O    0.54814   0.21601   0.31186   1.000
    O4526   O    0.21601   0.92399   0.31186   1.000
    O4527   O    0.21601   0.54814   0.31186   1.000
    O4528   O    0.92400   0.21601   0.31186   1.000
    O4529   O    0.95381   0.58502   0.31035   1.000
    O4530   O    0.96613   0.58476   0.32320   1.000
    O4531   O    0.95304   0.13038   0.30793   1.000
    O4532   O    0.95381   0.15083   0.31035   1.000
    O4533   O    0.96613   0.12591   0.32320   1.000
    O4534   O    0.58501   0.15083   0.31035   1.000
    O4535   O    0.58476   0.12591   0.32320   1.000
    O4536   O    0.60865   0.95304   0.30793   1.000
    O4537   O    0.58501   0.95381   0.31035   1.000
    O4538   O    0.58477   0.96613   0.32320   1.000
    O4539   O    0.15083   0.58502   0.31035   1.000
    O4540   O    0.12591   0.58476   0.32320   1.000
    O4541   O    0.13039   0.95304   0.30793   1.000
    O4542   O    0.15083   0.95381   0.31035   1.000
    O4543   O    0.12591   0.96613   0.32320   1.000
    O4544   O    0.80834   0.51354   0.30647   1.000
    O4545   O    0.82191   0.48581   0.30932   1.000
    O4546   O    0.80834   0.37167   0.30647   1.000
    O4547   O    0.82191   0.38295   0.30932   1.000
    O4548   O    0.37167   0.80834   0.30647   1.000
    O4549   O    0.38295   0.82192   0.30932   1.000
    O4550   O    0.51353   0.80834   0.30647   1.000
    O4551   O    0.48581   0.82192   0.30932   1.000
    O4552   O    0.51353   0.37167   0.30647   1.000
    O4553   O    0.48581   0.38295   0.30932   1.000
    O4554   O    0.37166   0.51354   0.30647   1.000
    O4555   O    0.38295   0.48581   0.30932   1.000
    O4556   O    0.52411   0.34513   0.31860   1.000
    O4557   O    0.52779   0.36423   0.31992   1.000
    O4558   O    0.34513   0.52410   0.31860   1.000
    O4559   O    0.36423   0.52780   0.31992   1.000
    O4560   O    0.52410   0.81217   0.31860   1.000
    O4561   O    0.52780   0.78807   0.31992   1.000
    O4562   O    0.34513   0.81217   0.31860   1.000
    O4563   O    0.36423   0.78807   0.31992   1.000
    O4564   O    0.81217   0.34513   0.31860   1.000
    O4565   O    0.78807   0.36423   0.31992   1.000
    O4566   O    0.81217   0.52410   0.31860   1.000
    O4567   O    0.78807   0.52780   0.31992   1.000
    O4568   O    0.78215   0.31285   0.31285   1.000
    O4569   O    0.77459   0.29616   0.31535   1.000
    O4570   O    0.31285   0.59215   0.31285   1.000
    O4571   O    0.29616   0.61390   0.31535   1.000
    O4572   O    0.59215   0.31285   0.31285   1.000
    O4573   O    0.61390   0.29616   0.31535   1.000
    O4574   O    0.78215   0.59215   0.31285   1.000
    O4575   O    0.77459   0.61390   0.31535   1.000
    O4576   O    0.59215   0.78215   0.31285   1.000
    O4577   O    0.61389   0.77459   0.31535   1.000
    O4578   O    0.31285   0.78215   0.31285   1.000
    O4579   O    0.29616   0.77459   0.31535   1.000
    O4580   O    0.08103   0.67018   0.32056   1.000
    O4581   O    0.92823   0.67018   0.32056   1.000
    O4582   O    0.67018   0.92823   0.32056   1.000
    O4583   O    0.08103   0.92823   0.32056   1.000
    O4584   O    0.67018   0.08103   0.32056   1.000
    O4585   O    0.92823   0.08103   0.32056   1.000
    O4586   O    0.62500   0.12500   0.32537   1.000
    O4587   O    0.12500   0.92463   0.32537   1.000
    O4588   O    0.12500   0.62500   0.32537   1.000
    O4589   O    0.62500   0.92463   0.32537   1.000
    O4590   O    0.92463   0.12500   0.32537   1.000
    O4591   O    0.92463   0.62500   0.32537   1.000
    O4592   O    0.83881   0.67444   0.31967   1.000
    O4593   O    0.16709   0.83881   0.31967   1.000
    O4594   O    0.67444   0.16709   0.31967   1.000
    O4595   O    0.67444   0.83881   0.31967   1.000
    O4596   O    0.83881   0.16709   0.31967   1.000
    O4597   O    0.16709   0.67444   0.31967   1.000
    O4598   O    0.53020   0.24962   0.31642   1.000
    O4599   O    0.90376   0.24962   0.31642   1.000
    O4600   O    0.90376   0.53020   0.31642   1.000
    O4601   O    0.24962   0.90376   0.31642   1.000
    O4602   O    0.24962   0.53020   0.31642   1.000
    O4603   O    0.53020   0.90376   0.31642   1.000
    O4604   O    0.83083   0.39431   0.31158   1.000
    O4605   O    0.84079   0.40581   0.31384   1.000
    O4606   O    0.83083   0.46328   0.31158   1.000
    O4607   O    0.84079   0.43957   0.31384   1.000
    O4608   O    0.39431   0.46328   0.31158   1.000
    O4609   O    0.40581   0.43957   0.31384   1.000
    O4610   O    0.46328   0.39431   0.31158   1.000
    O4611   O    0.43957   0.40581   0.31384   1.000
    O4612   O    0.46328   0.83083   0.31158   1.000
    O4613   O    0.43957   0.84079   0.31384   1.000
    O4614   O    0.39431   0.83083   0.31158   1.000
    O4615   O    0.40581   0.84079   0.31384   1.000
    O4616   O    0.83918   0.47333   0.31598   1.000
    O4617   O    0.83918   0.37151   0.31598   1.000
    O4618   O    0.37151   0.83918   0.31598   1.000
    O4619   O    0.47332   0.83918   0.31598   1.000
    O4620   O    0.37151   0.47333   0.31598   1.000
    O4621   O    0.47333   0.37151   0.31598   1.000
    O4622   O    0.63470   0.27973   0.31814   1.000
    O4623   O    0.65338   0.26592   0.31956   1.000
    O4624   O    0.27972   0.76744   0.31814   1.000
    O4625   O    0.26592   0.76114   0.31956   1.000
    O4626   O    0.63470   0.76744   0.31814   1.000
    O4627   O    0.65338   0.76114   0.31956   1.000
    O4628   O    0.76744   0.63470   0.31814   1.000
    O4629   O    0.76113   0.65338   0.31956   1.000
    O4630   O    0.27973   0.63470   0.31814   1.000
    O4631   O    0.26592   0.65338   0.31956   1.000
    O4632   O    0.76744   0.27973   0.31814   1.000
    O4633   O    0.76114   0.26592   0.31956   1.000
    O4634   O    0.92944   0.57983   0.32177   1.000
    O4635   O    0.57983   0.92944   0.32177   1.000
    O4636   O    0.16897   0.57983   0.32177   1.000
    O4637   O    0.92944   0.16897   0.32177   1.000
    O4638   O    0.16897   0.92944   0.32177   1.000
    O4639   O    0.57982   0.16897   0.32177   1.000
    O4640   O    0.93814   0.70186   0.32601   1.000
    O4641   O    0.70186   0.93814   0.32601   1.000
    O4642   O    0.93814   0.03399   0.32601   1.000
    O4643   O    0.03399   0.70186   0.32601   1.000
    O4644   O    0.03399   0.93814   0.32601   1.000
    O4645   O    0.70186   0.03399   0.32601   1.000
    O4646   O    0.41634   0.85054   0.31679   1.000
    O4647   O    0.42650   0.85816   0.31927   1.000
    O4648   O    0.85054   0.41634   0.31679   1.000
    O4649   O    0.85815   0.39608   0.31927   1.000
    O4650   O    0.41634   0.41634   0.31679   1.000
    O4651   O    0.42650   0.39608   0.31927   1.000
    O4652   O    0.85816   0.42650   0.31927   1.000
    O4653   O    0.39608   0.42650   0.31927   1.000
    O4654   O    0.39608   0.85816   0.31927   1.000
    O4655   O    0.78933   0.31070   0.32844   1.000
    O4656   O    0.57153   0.78932   0.32844   1.000
    O4657   O    0.78933   0.57153   0.32844   1.000
    O4658   O    0.31070   0.78932   0.32844   1.000
    O4659   O    0.31070   0.57153   0.32844   1.000
    O4660   O    0.57153   0.31070   0.32844   1.000
    O4661   O    0.22972   0.54285   0.32057   1.000
    O4662   O    0.20749   0.55777   0.32594   1.000
    O4663   O    0.90686   0.22972   0.32057   1.000
    O4664   O    0.90881   0.20748   0.32594   1.000
    O4665   O    0.22972   0.90687   0.32057   1.000
    O4666   O    0.20749   0.90881   0.32594   1.000
    O4667   O    0.54285   0.90687   0.32057   1.000
    O4668   O    0.55777   0.90881   0.32594   1.000
    O4669   O    0.54285   0.22972   0.32057   1.000
    O4670   O    0.55777   0.20748   0.32594   1.000
    O4671   O    0.90686   0.54285   0.32057   1.000
    O4672   O    0.90881   0.55777   0.32594   1.000
    O4673   O    0.34328   0.85169   0.32272   1.000
    O4674   O    0.48231   0.34328   0.32272   1.000
    O4675   O    0.85169   0.34328   0.32272   1.000
    O4676   O    0.85170   0.48231   0.32272   1.000
    O4677   O    0.48230   0.85169   0.32272   1.000
    O4678   O    0.34328   0.48231   0.32272   1.000
    O4679   O    0.13352   0.89791   0.33107   1.000
    O4680   O    0.63750   0.13353   0.33107   1.000
    O4681   O    0.89791   0.63750   0.33107   1.000
    O4682   O    0.63750   0.89791   0.33107   1.000
    O4683   O    0.89791   0.13353   0.33107   1.000
    O4684   O    0.13353   0.63750   0.33107   1.000
    O4685   O    0.88659   0.53810   0.33098   1.000
    O4686   O    0.53809   0.88660   0.33098   1.000
    O4687   O    0.24433   0.88660   0.33098   1.000
    O4688   O    0.88659   0.24433   0.33098   1.000
    O4689   O    0.24433   0.53810   0.33098   1.000
    O4690   O    0.53809   0.24433   0.33098   1.000
    O4691   O    0.61594   0.77387   0.33186   1.000
    O4692   O    0.27834   0.61594   0.33186   1.000
    O4693   O    0.61594   0.27833   0.33186   1.000
    O4694   O    0.77387   0.61594   0.33186   1.000
    O4695   O    0.77387   0.27833   0.33186   1.000
    O4696   O    0.27833   0.77387   0.33186   1.000
    O4697   O    0.50198   0.30795   0.32843   1.000
    O4698   O    0.48231   0.32271   0.34328   1.000
    O4699   O    0.30795   0.86164   0.32843   1.000
    O4700   O    0.32271   0.85169   0.34328   1.000
    O4701   O    0.86164   0.30795   0.32843   1.000
    O4702   O    0.85170   0.32271   0.34328   1.000
    O4703   O    0.86164   0.50198   0.32843   1.000
    O4704   O    0.85170   0.48231   0.34328   1.000
    O4705   O    0.50198   0.86164   0.32843   1.000
    O4706   O    0.48231   0.85169   0.34328   1.000
    O4707   O    0.30795   0.50198   0.32843   1.000
    O4708   O    0.32271   0.48231   0.34328   1.000
    O4709   O    0.91041   0.57403   0.33081   1.000
    O4710   O    0.91078   0.59067   0.33385   1.000
    O4711   O    0.91041   0.18475   0.33081   1.000
    O4712   O    0.91078   0.16470   0.33385   1.000
    O4713   O    0.18476   0.57403   0.33081   1.000
    O4714   O    0.16470   0.59067   0.33385   1.000
    O4715   O    0.57404   0.18475   0.33081   1.000
    O4716   O    0.59068   0.16470   0.33385   1.000
    O4717   O    0.57403   0.91041   0.33081   1.000
    O4718   O    0.59067   0.91079   0.33385   1.000
    O4719   O    0.18475   0.91041   0.33081   1.000
    O4720   O    0.16470   0.91079   0.33385   1.000
    O4721   O    0.81217   0.31860   0.34513   1.000
    O4722   O    0.31859   0.81217   0.34513   1.000
    O4723   O    0.52411   0.81217   0.34513   1.000
    O4724   O    0.31859   0.52411   0.34513   1.000
    O4725   O    0.81217   0.52411   0.34513   1.000
    O4726   O    0.52411   0.31860   0.34513   1.000
    O4727   O    0.86231   0.51970   0.33639   1.000
    O4728   O    0.86231   0.28160   0.33639   1.000
    O4729   O    0.28160   0.51970   0.33639   1.000
    O4730   O    0.28160   0.86231   0.33639   1.000
    O4731   O    0.51970   0.86231   0.33639   1.000
    O4732   O    0.51970   0.28160   0.33639   1.000
    O4733   O    0.65933   0.91616   0.33922   1.000
    O4734   O    0.67596   0.91920   0.33959   1.000
    O4735   O    0.91616   0.08529   0.33922   1.000
    O4736   O    0.91920   0.06525   0.33959   1.000
    O4737   O    0.08529   0.65933   0.33922   1.000
    O4738   O    0.06525   0.67596   0.33959   1.000
    O4739   O    0.91616   0.65933   0.33922   1.000
    O4740   O    0.91919   0.67596   0.33959   1.000
    O4741   O    0.65933   0.08529   0.33922   1.000
    O4742   O    0.67597   0.06525   0.33959   1.000
    O4743   O    0.08529   0.91616   0.33922   1.000
    O4744   O    0.06525   0.91920   0.33959   1.000
    O4745   O    0.56748   0.19980   0.34205   1.000
    O4746   O    0.19980   0.89067   0.34205   1.000
    O4747   O    0.56748   0.89067   0.34205   1.000
    O4748   O    0.89066   0.56748   0.34205   1.000
    O4749   O    0.89067   0.19980   0.34205   1.000
    O4750   O    0.19980   0.56748   0.34205   1.000
    O4751   O    0.36303   0.76761   0.34525   1.000
    O4752   O    0.76760   0.36303   0.34525   1.000
    O4753   O    0.52411   0.36303   0.34525   1.000
    O4754   O    0.52411   0.76761   0.34525   1.000
    O4755   O    0.36303   0.52411   0.34525   1.000
    O4756   O    0.76760   0.52411   0.34525   1.000
    O4757   O    0.04251   0.92406   0.34119   1.000
    O4758   O    0.02028   0.92944   0.34314   1.000
    O4759   O    0.04252   0.69223   0.34119   1.000
    O4760   O    0.02028   0.70715   0.34314   1.000
    O4761   O    0.92406   0.04252   0.34119   1.000
    O4762   O    0.92943   0.02028   0.34314   1.000
    O4763   O    0.69224   0.04252   0.34119   1.000
    O4764   O    0.70715   0.02028   0.34314   1.000
    O4765   O    0.92406   0.69223   0.34119   1.000
    O4766   O    0.92944   0.70715   0.34314   1.000
    O4767   O    0.69223   0.92406   0.34119   1.000
    O4768   O    0.70715   0.92944   0.34314   1.000
    O4769   O    0.14118   0.61222   0.33986   1.000
    O4770   O    0.90674   0.14119   0.33986   1.000
    O4771   O    0.61221   0.14119   0.33986   1.000
    O4772   O    0.14119   0.90674   0.33986   1.000
    O4773   O    0.61222   0.90674   0.33986   1.000
    O4774   O    0.90674   0.61222   0.33986   1.000
    O4775   O    0.79744   0.30517   0.34945   1.000
    O4776   O    0.30517   0.54795   0.34945   1.000
    O4777   O    0.79744   0.54795   0.34945   1.000
    O4778   O    0.54795   0.79744   0.34945   1.000
    O4779   O    0.30518   0.79744   0.34945   1.000
    O4780   O    0.54795   0.30517   0.34945   1.000
    O4781   O    0.25988   0.53409   0.34069   1.000
    O4782   O    0.23655   0.54789   0.34705   1.000
    O4783   O    0.86535   0.53409   0.34069   1.000
    O4784   O    0.86850   0.54789   0.34705   1.000
    O4785   O    0.53408   0.25988   0.34069   1.000
    O4786   O    0.54790   0.23655   0.34705   1.000
    O4787   O    0.53409   0.86535   0.34069   1.000
    O4788   O    0.54789   0.86850   0.34705   1.000
    O4789   O    0.86535   0.25988   0.34069   1.000
    O4790   O    0.86850   0.23655   0.34705   1.000
    O4791   O    0.25988   0.86535   0.34069   1.000
    O4792   O    0.23655   0.86850   0.34705   1.000
    O4793   O    0.73106   0.40436   0.35070   1.000
    O4794   O    0.40436   0.73106   0.35070   1.000
    O4795   O    0.51389   0.40436   0.35070   1.000
    O4796   O    0.40436   0.51390   0.35070   1.000
    O4797   O    0.51389   0.73106   0.35070   1.000
    O4798   O    0.73105   0.51390   0.35070   1.000
    O4799   O    0.95825   0.57946   0.35130   1.000
    O4800   O    0.95824   0.11100   0.35130   1.000
    O4801   O    0.57946   0.95824   0.35130   1.000
    O4802   O    0.11100   0.57946   0.35130   1.000
    O4803   O    0.57946   0.11100   0.35130   1.000
    O4804   O    0.11100   0.95824   0.35130   1.000
    O4805   O    0.91014   0.10881   0.34326   1.000
    O4806   O    0.91893   0.11648   0.35209   1.000
    O4807   O    0.10881   0.63778   0.34326   1.000
    O4808   O    0.11648   0.61250   0.35209   1.000
    O4809   O    0.63778   0.91014   0.34326   1.000
    O4810   O    0.61250   0.91893   0.35209   1.000
    O4811   O    0.91014   0.63778   0.34326   1.000
    O4812   O    0.91893   0.61250   0.35209   1.000
    O4813   O    0.63778   0.10881   0.34326   1.000
    O4814   O    0.61250   0.11648   0.35209   1.000
    O4815   O    0.10881   0.91014   0.34326   1.000
    O4816   O    0.11648   0.91893   0.35209   1.000
    O4817   O    0.27525   0.53243   0.34749   1.000
    O4818   O    0.84482   0.53243   0.34749   1.000
    O4819   O    0.53244   0.84482   0.34749   1.000
    O4820   O    0.53243   0.27525   0.34749   1.000
    O4821   O    0.84482   0.27525   0.34749   1.000
    O4822   O    0.27525   0.84482   0.34749   1.000
    O4823   O    0.93359   0.71980   0.34624   1.000
    O4824   O    0.71980   0.93358   0.34624   1.000
    O4825   O    0.93359   0.00038   0.34624   1.000
    O4826   O    0.00038   0.71980   0.34624   1.000
    O4827   O    0.00038   0.93358   0.34624   1.000
    O4828   O    0.71980   0.00038   0.34624   1.000
    O4829   O    0.68252   0.90795   0.35934   1.000
    O4830   O    0.05020   0.68252   0.35934   1.000
    O4831   O    0.68252   0.05020   0.35934   1.000
    O4832   O    0.05020   0.90795   0.35934   1.000
    O4833   O    0.90795   0.68252   0.35934   1.000
    O4834   O    0.90795   0.05020   0.35934   1.000
    O4835   O    0.91902   0.71190   0.36341   1.000
    O4836   O    0.00567   0.91902   0.36341   1.000
    O4837   O    0.71190   0.91902   0.36341   1.000
    O4838   O    0.71191   0.00567   0.36341   1.000
    O4839   O    0.91902   0.00567   0.36341   1.000
    O4840   O    0.00567   0.71190   0.36341   1.000
    O4841   O    0.87062   0.21425   0.35275   1.000
    O4842   O    0.87346   0.19462   0.35686   1.000
    O4843   O    0.21426   0.56237   0.35275   1.000
    O4844   O    0.19462   0.57506   0.35686   1.000
    O4845   O    0.87062   0.56237   0.35275   1.000
    O4846   O    0.87346   0.57506   0.35686   1.000
    O4847   O    0.21426   0.87062   0.35275   1.000
    O4848   O    0.19462   0.87346   0.35686   1.000
    O4849   O    0.56236   0.87062   0.35275   1.000
    O4850   O    0.57506   0.87346   0.35686   1.000
    O4851   O    0.56236   0.21425   0.35275   1.000
    O4852   O    0.57506   0.19462   0.35686   1.000
    O4853   O    0.53346   0.81806   0.35648   1.000
    O4854   O    0.29201   0.81806   0.35648   1.000
    O4855   O    0.29201   0.53345   0.35648   1.000
    O4856   O    0.53346   0.29201   0.35648   1.000
    O4857   O    0.81806   0.53345   0.35648   1.000
    O4858   O    0.81806   0.29201   0.35648   1.000
    O4859   O    0.55743   0.22783   0.36126   1.000
    O4860   O    0.55743   0.85347   0.36126   1.000
    O4861   O    0.22783   0.85347   0.36126   1.000
    O4862   O    0.22783   0.55743   0.36126   1.000
    O4863   O    0.85347   0.22783   0.36126   1.000
    O4864   O    0.85347   0.55743   0.36126   1.000
    O4865   O    0.34525   0.76760   0.36303   1.000
    O4866   O    0.36494   0.75039   0.36495   1.000
    O4867   O    0.76760   0.34525   0.36303   1.000
    O4868   O    0.75039   0.36495   0.36495   1.000
    O4869   O    0.52411   0.34525   0.36303   1.000
    O4870   O    0.51972   0.36495   0.36495   1.000
    O4871   O    0.52411   0.76760   0.36303   1.000
    O4872   O    0.51972   0.75039   0.36495   1.000
    O4873   O    0.34525   0.52411   0.36303   1.000
    O4874   O    0.36495   0.51972   0.36495   1.000
    O4875   O    0.76760   0.52411   0.36303   1.000
    O4876   O    0.75039   0.51972   0.36495   1.000
    O4877   O    0.78807   0.52779   0.36423   1.000
    O4878   O    0.80834   0.51353   0.37167   1.000
    O4879   O    0.52780   0.31992   0.36423   1.000
    O4880   O    0.51353   0.30646   0.37167   1.000
    O4881   O    0.31991   0.78807   0.36423   1.000
    O4882   O    0.30646   0.80834   0.37167   1.000
    O4883   O    0.78807   0.31992   0.36423   1.000
    O4884   O    0.80834   0.30646   0.37167   1.000
    O4885   O    0.52780   0.78807   0.36423   1.000
    O4886   O    0.51353   0.80834   0.37167   1.000
    O4887   O    0.31992   0.52779   0.36423   1.000
    O4888   O    0.30647   0.51353   0.37167   1.000
    O4889   O    0.31598   0.47333   0.37151   1.000
    O4890   O    0.31598   0.83918   0.37151   1.000
    O4891   O    0.83918   0.31598   0.37151   1.000
    O4892   O    0.83918   0.47333   0.37151   1.000
    O4893   O    0.47333   0.83918   0.37151   1.000
    O4894   O    0.47332   0.31598   0.37151   1.000
    O4895   O    0.73259   0.51447   0.36684   1.000
    O4896   O    0.71618   0.50825   0.36853   1.000
    O4897   O    0.38610   0.73259   0.36684   1.000
    O4898   O    0.40705   0.71617   0.36853   1.000
    O4899   O    0.73259   0.38611   0.36684   1.000
    O4900   O    0.71617   0.40705   0.36853   1.000
    O4901   O    0.51447   0.73259   0.36684   1.000
    O4902   O    0.50825   0.71617   0.36853   1.000
    O4903   O    0.38611   0.51447   0.36684   1.000
    O4904   O    0.40705   0.50825   0.36853   1.000
    O4905   O    0.51447   0.38611   0.36684   1.000
    O4906   O    0.50825   0.40705   0.36853   1.000
    O4907   O    0.10695   0.93945   0.36275   1.000
    O4908   O    0.09863   0.95399   0.37418   1.000
    O4909   O    0.93945   0.59085   0.36275   1.000
    O4910   O    0.95400   0.57320   0.37418   1.000
    O4911   O    0.93945   0.10696   0.36275   1.000
    O4912   O    0.95400   0.09863   0.37418   1.000
    O4913   O    0.59085   0.93945   0.36275   1.000
    O4914   O    0.57320   0.95399   0.37418   1.000
    O4915   O    0.10695   0.59085   0.36275   1.000
    O4916   O    0.09863   0.57320   0.37418   1.000
    O4917   O    0.59085   0.10696   0.36275   1.000
    O4918   O    0.57319   0.09863   0.37418   1.000
    O4919   O    0.42492   0.70144   0.37126   1.000
    O4920   O    0.70144   0.42492   0.37126   1.000
    O4921   O    0.50238   0.42492   0.37126   1.000
    O4922   O    0.70144   0.50238   0.37126   1.000
    O4923   O    0.42492   0.50238   0.37126   1.000
    O4924   O    0.50238   0.70144   0.37126   1.000
    O4925   O    0.09062   0.54318   0.37706   1.000
    O4926   O    0.98913   0.54318   0.37706   1.000
    O4927   O    0.98914   0.09062   0.37706   1.000
    O4928   O    0.09062   0.98914   0.37706   1.000
    O4929   O    0.54318   0.09062   0.37706   1.000
    O4930   O    0.54318   0.98914   0.37706   1.000
    O4931   O    0.05538   0.89314   0.37654   1.000
    O4932   O    0.03575   0.89726   0.37938   1.000
    O4933   O    0.67494   0.89314   0.37654   1.000
    O4934   O    0.68763   0.89726   0.37938   1.000
    O4935   O    0.89314   0.05538   0.37654   1.000
    O4936   O    0.89726   0.03574   0.37938   1.000
    O4937   O    0.05538   0.67494   0.37654   1.000
    O4938   O    0.03574   0.68763   0.37938   1.000
    O4939   O    0.67494   0.05538   0.37654   1.000
    O4940   O    0.68763   0.03574   0.37938   1.000
    O4941   O    0.89315   0.67494   0.37654   1.000
    O4942   O    0.89726   0.68763   0.37938   1.000
    O4943   O    0.73259   0.36684   0.38611   1.000
    O4944   O    0.36684   0.73259   0.38611   1.000
    O4945   O    0.51447   0.36684   0.38611   1.000
    O4946   O    0.73259   0.51446   0.38611   1.000
    O4947   O    0.51447   0.73259   0.38611   1.000
    O4948   O    0.36684   0.51446   0.38611   1.000
    O4949   O    0.40879   0.69997   0.38953   1.000
    O4950   O    0.50170   0.69997   0.38953   1.000
    O4951   O    0.40879   0.50171   0.38953   1.000
    O4952   O    0.69997   0.40879   0.38953   1.000
    O4953   O    0.69997   0.50171   0.38953   1.000
    O4954   O    0.50171   0.40879   0.38953   1.000
    O4955   O    0.70210   0.01345   0.38150   1.000
    O4956   O    0.71591   0.99012   0.38466   1.000
    O4957   O    0.70211   0.90295   0.38150   1.000
    O4958   O    0.71592   0.90931   0.38466   1.000
    O4959   O    0.90295   0.70210   0.38150   1.000
    O4960   O    0.90931   0.71592   0.38466   1.000
    O4961   O    0.90295   0.01345   0.38150   1.000
    O4962   O    0.90931   0.99012   0.38466   1.000
    O4963   O    0.01345   0.70210   0.38150   1.000
    O4964   O    0.99012   0.71592   0.38466   1.000
    O4965   O    0.01345   0.90295   0.38150   1.000
    O4966   O    0.99012   0.90931   0.38466   1.000
    O4967   O    0.30932   0.82191   0.38295   1.000
    O4968   O    0.31158   0.83083   0.39431   1.000
    O4969   O    0.82191   0.48581   0.38295   1.000
    O4970   O    0.83083   0.46328   0.39431   1.000
    O4971   O    0.48581   0.30932   0.38295   1.000
    O4972   O    0.46328   0.31158   0.39431   1.000
    O4973   O    0.48581   0.82191   0.38295   1.000
    O4974   O    0.46328   0.83083   0.39431   1.000
    O4975   O    0.82191   0.30932   0.38295   1.000
    O4976   O    0.83083   0.31158   0.39431   1.000
    O4977   O    0.30932   0.48581   0.38295   1.000
    O4978   O    0.31158   0.46328   0.39431   1.000
    O4979   O    0.96840   0.91361   0.38769   1.000
    O4980   O    0.94205   0.92157   0.38836   1.000
    O4981   O    0.91361   0.96840   0.38769   1.000
    O4982   O    0.92157   0.94205   0.38836   1.000
    O4983   O    0.73030   0.91361   0.38769   1.000
    O4984   O    0.74802   0.92157   0.38836   1.000
    O4985   O    0.73029   0.96840   0.38769   1.000
    O4986   O    0.74802   0.94205   0.38836   1.000
    O4987   O    0.96840   0.73030   0.38769   1.000
    O4988   O    0.94205   0.74802   0.38836   1.000
    O4989   O    0.91361   0.73030   0.38769   1.000
    O4990   O    0.92157   0.74802   0.38836   1.000
    O4991   O    0.82350   0.93073   0.39185   1.000
    O4992   O    0.93073   0.85392   0.39185   1.000
    O4993   O    0.85392   0.93073   0.39185   1.000
    O4994   O    0.85392   0.82350   0.39185   1.000
    O4995   O    0.93073   0.82350   0.39185   1.000
    O4996   O    0.82350   0.85392   0.39185   1.000
    O4997   O    0.96981   0.55477   0.38626   1.000
    O4998   O    0.98524   0.53701   0.39763   1.000
    O4999   O    0.55477   0.96980   0.38626   1.000
    O5000   O    0.53700   0.98524   0.39763   1.000
    O5001   O    0.08916   0.96980   0.38626   1.000
    O5002   O    0.08011   0.98524   0.39763   1.000
    O5003   O    0.96980   0.08917   0.38626   1.000
    O5004   O    0.98525   0.08011   0.39763   1.000
    O5005   O    0.08916   0.55477   0.38626   1.000
    O5006   O    0.08011   0.53701   0.39763   1.000
    O5007   O    0.55477   0.08917   0.38626   1.000
    O5008   O    0.53700   0.08011   0.39763   1.000
    O5009   O    0.56640   0.94872   0.39849   1.000
    O5010   O    0.94872   0.56640   0.39849   1.000
    O5011   O    0.94872   0.08639   0.39849   1.000
    O5012   O    0.08640   0.56640   0.39849   1.000
    O5013   O    0.56640   0.08639   0.39849   1.000
    O5014   O    0.08639   0.94872   0.39849   1.000
    O5015   O    0.69256   0.02217   0.39653   1.000
    O5016   O    0.02217   0.88874   0.39653   1.000
    O5017   O    0.02217   0.69256   0.39653   1.000
    O5018   O    0.88874   0.69256   0.39653   1.000
    O5019   O    0.69256   0.88874   0.39653   1.000
    O5020   O    0.88874   0.02217   0.39653   1.000
    O5021   O    0.85816   0.31927   0.39608   1.000
    O5022   O    0.42650   0.85816   0.39608   1.000
    O5023   O    0.85816   0.42650   0.39608   1.000
    O5024   O    0.42650   0.31927   0.39608   1.000
    O5025   O    0.31927   0.85816   0.39608   1.000
    O5026   O    0.31926   0.42650   0.39608   1.000
    O5027   O    0.71756   0.97475   0.40518   1.000
    O5028   O    0.90251   0.97475   0.40518   1.000
    O5029   O    0.97475   0.71757   0.40518   1.000
    O5030   O    0.97475   0.90251   0.40518   1.000
    O5031   O    0.90251   0.71757   0.40518   1.000
    O5032   O    0.71757   0.90251   0.40518   1.000
    O5033   O    0.92728   0.90672   0.39831   1.000
    O5034   O    0.90672   0.92728   0.39831   1.000
    O5035   O    0.92728   0.76770   0.39831   1.000
    O5036   O    0.90672   0.76770   0.39831   1.000
    O5037   O    0.76769   0.92728   0.39831   1.000
    O5038   O    0.76769   0.90672   0.39831   1.000
    O5039   O    0.83366   0.93321   0.39946   1.000
    O5040   O    0.81044   0.93616   0.40921   1.000
    O5041   O    0.93321   0.83367   0.39946   1.000
    O5042   O    0.93616   0.84419   0.40921   1.000
    O5043   O    0.83366   0.83367   0.39946   1.000
    O5044   O    0.84419   0.81044   0.40921   1.000
    O5045   O    0.81043   0.84419   0.40921   1.000
    O5046   O    0.93616   0.81044   0.40921   1.000
    O5047   O    0.84419   0.93616   0.40921   1.000
    O5048   O    0.73106   0.51389   0.40436   1.000
    O5049   O    0.71617   0.50825   0.40705   1.000
    O5050   O    0.35070   0.51389   0.40436   1.000
    O5051   O    0.36852   0.50825   0.40705   1.000
    O5052   O    0.35070   0.73105   0.40436   1.000
    O5053   O    0.36852   0.71617   0.40705   1.000
    O5054   O    0.73105   0.35069   0.40436   1.000
    O5055   O    0.71617   0.36852   0.40705   1.000
    O5056   O    0.51390   0.73105   0.40436   1.000
    O5057   O    0.50825   0.71617   0.40705   1.000
    O5058   O    0.51389   0.35069   0.40436   1.000
    O5059   O    0.50825   0.36852   0.40705   1.000
    O5060   O    0.93402   0.77668   0.41082   1.000
    O5061   O    0.93402   0.87849   0.41082   1.000
    O5062   O    0.77667   0.93402   0.41082   1.000
    O5063   O    0.87849   0.93402   0.41082   1.000
    O5064   O    0.77668   0.87849   0.41082   1.000
    O5065   O    0.87849   0.77668   0.41082   1.000
    O5066   O    0.50171   0.38953   0.40879   1.000
    O5067   O    0.49423   0.41111   0.41111   1.000
    O5068   O    0.69997   0.38953   0.40879   1.000
    O5069   O    0.68356   0.41111   0.41111   1.000
    O5070   O    0.38953   0.69997   0.40879   1.000
    O5071   O    0.41111   0.68356   0.41111   1.000
    O5072   O    0.50171   0.69997   0.40879   1.000
    O5073   O    0.49423   0.68356   0.41111   1.000
    O5074   O    0.69997   0.50170   0.40879   1.000
    O5075   O    0.68356   0.49423   0.41111   1.000
    O5076   O    0.38953   0.50170   0.40879   1.000
    O5077   O    0.41111   0.49423   0.41111   1.000
    O5078   O    0.84079   0.43957   0.40581   1.000
    O5079   O    0.85054   0.41634   0.41634   1.000
    O5080   O    0.31384   0.84079   0.40581   1.000
    O5081   O    0.31679   0.85054   0.41634   1.000
    O5082   O    0.84079   0.31384   0.40581   1.000
    O5083   O    0.85054   0.31679   0.41634   1.000
    O5084   O    0.43957   0.84079   0.40581   1.000
    O5085   O    0.41633   0.85054   0.41634   1.000
    O5086   O    0.31384   0.43957   0.40581   1.000
    O5087   O    0.31679   0.41634   0.41634   1.000
    O5088   O    0.43957   0.31384   0.40581   1.000
    O5089   O    0.41633   0.31679   0.41634   1.000
    O5090   O    0.45235   0.30773   0.41855   1.000
    O5091   O    0.30773   0.45235   0.41855   1.000
    O5092   O    0.82137   0.45235   0.41855   1.000
    O5093   O    0.82137   0.30773   0.41855   1.000
    O5094   O    0.30774   0.82137   0.41855   1.000
    O5095   O    0.45236   0.82137   0.41855   1.000
    O5096   O    0.46857   0.57346   0.41485   1.000
    O5097   O    0.54313   0.57346   0.41485   1.000
    O5098   O    0.57346   0.46857   0.41485   1.000
    O5099   O    0.54313   0.46857   0.41485   1.000
    O5100   O    0.46857   0.54313   0.41485   1.000
    O5101   O    0.57345   0.54313   0.41485   1.000
    O5102   O    0.07161   0.99804   0.40856   1.000
    O5103   O    0.07161   0.52180   0.40856   1.000
    O5104   O    0.99804   0.52180   0.40856   1.000
    O5105   O    0.99804   0.07161   0.40856   1.000
    O5106   O    0.52180   0.07161   0.40856   1.000
    O5107   O    0.52180   0.99804   0.40856   1.000
    O5108   O    0.45769   0.65060   0.41340   1.000
    O5109   O    0.43135   0.66814   0.41360   1.000
    O5110   O    0.65060   0.47831   0.41340   1.000
    O5111   O    0.66814   0.48692   0.41360   1.000
    O5112   O    0.47831   0.65060   0.41340   1.000
    O5113   O    0.48693   0.66814   0.41360   1.000
    O5114   O    0.45768   0.47831   0.41340   1.000
    O5115   O    0.43135   0.48692   0.41360   1.000
    O5116   O    0.47831   0.45768   0.41340   1.000
    O5117   O    0.48693   0.43135   0.41360   1.000
    O5118   O    0.65060   0.45768   0.41340   1.000
    O5119   O    0.66814   0.43135   0.41360   1.000
    O5120   O    0.97961   0.06822   0.42122   1.000
    O5121   O    0.06822   0.53096   0.42122   1.000
    O5122   O    0.06822   0.97961   0.42122   1.000
    O5123   O    0.53095   0.97961   0.42122   1.000
    O5124   O    0.97961   0.53096   0.42122   1.000
    O5125   O    0.53095   0.06822   0.42122   1.000
    O5126   O    0.08291   0.93034   0.41119   1.000
    O5127   O    0.07464   0.94305   0.42205   1.000
    O5128   O    0.93033   0.57556   0.41119   1.000
    O5129   O    0.94305   0.56027   0.42205   1.000
    O5130   O    0.57556   0.08291   0.41119   1.000
    O5131   O    0.56026   0.07464   0.42205   1.000
    O5132   O    0.08291   0.57556   0.41119   1.000
    O5133   O    0.07464   0.56027   0.42205   1.000
    O5134   O    0.93034   0.08291   0.41119   1.000
    O5135   O    0.94305   0.07464   0.42205   1.000
    O5136   O    0.57556   0.93034   0.41119   1.000
    O5137   O    0.56026   0.94305   0.42205   1.000
    O5138   O    0.50238   0.37126   0.42492   1.000
    O5139   O    0.37126   0.50238   0.42492   1.000
    O5140   O    0.70144   0.50238   0.42492   1.000
    O5141   O    0.70144   0.37126   0.42492   1.000
    O5142   O    0.50238   0.70144   0.42492   1.000
    O5143   O    0.37126   0.70144   0.42492   1.000
    O5144   O    0.89353   0.71654   0.43194   1.000
    O5145   O    0.95799   0.89353   0.43194   1.000
    O5146   O    0.71654   0.89353   0.43194   1.000
    O5147   O    0.89353   0.95799   0.43194   1.000
    O5148   O    0.71655   0.95799   0.43194   1.000
    O5149   O    0.95799   0.71654   0.43194   1.000
    O5150   O    0.62437   0.48699   0.42220   1.000
    O5151   O    0.62437   0.46644   0.42220   1.000
    O5152   O    0.48700   0.62437   0.42220   1.000
    O5153   O    0.46644   0.62437   0.42220   1.000
    O5154   O    0.46300   0.63754   0.43647   1.000
    O5155   O    0.46644   0.48699   0.42220   1.000
    O5156   O    0.48699   0.46644   0.42220   1.000
    O5157   O    0.46300   0.46299   0.43647   1.000
    O5158   O    0.78672   0.93842   0.41917   1.000
    O5159   O    0.79764   0.94226   0.42863   1.000
    O5160   O    0.93842   0.85570   0.41917   1.000
    O5161   O    0.94227   0.83145   0.42863   1.000
    O5162   O    0.93842   0.78672   0.41917   1.000
    O5163   O    0.94226   0.79764   0.42863   1.000
    O5164   O    0.85569   0.78672   0.41917   1.000
    O5165   O    0.83146   0.79764   0.42863   1.000
    O5166   O    0.78672   0.85570   0.41917   1.000
    O5167   O    0.79765   0.83145   0.42863   1.000
    O5168   O    0.85570   0.93842   0.41917   1.000
    O5169   O    0.83146   0.94226   0.42863   1.000
    O5170   O    0.41359   0.48693   0.43135   1.000
    O5171   O    0.41360   0.66813   0.43135   1.000
    O5172   O    0.66814   0.41359   0.43135   1.000
    O5173   O    0.48693   0.41359   0.43135   1.000
    O5174   O    0.66813   0.48693   0.43135   1.000
    O5175   O    0.48693   0.66813   0.43135   1.000
    O5176   O    0.76419   0.86705   0.42809   1.000
    O5177   O    0.94068   0.86705   0.42809   1.000
    O5178   O    0.94068   0.76419   0.42809   1.000
    O5179   O    0.86705   0.76419   0.42809   1.000
    O5180   O    0.86705   0.94068   0.42809   1.000
    O5181   O    0.76419   0.94068   0.42809   1.000
    O5182   O    0.55834   0.46092   0.42240   1.000
    O5183   O    0.57506   0.45140   0.43214   1.000
    O5184   O    0.55834   0.55833   0.42240   1.000
    O5185   O    0.54139   0.57507   0.43214   1.000
    O5186   O    0.46092   0.55833   0.42240   1.000
    O5187   O    0.45140   0.57507   0.43214   1.000
    O5188   O    0.45140   0.54139   0.43214   1.000
    O5189   O    0.57507   0.54139   0.43214   1.000
    O5190   O    0.54139   0.45140   0.43214   1.000
    O5191   O    0.31926   0.85816   0.42650   1.000
    O5192   O    0.85815   0.39608   0.42650   1.000
    O5193   O    0.85816   0.31927   0.42650   1.000
    O5194   O    0.31926   0.39608   0.42650   1.000
    O5195   O    0.39608   0.31927   0.42650   1.000
    O5196   O    0.39608   0.85816   0.42650   1.000
    O5197   O    0.45191   0.50722   0.43420   1.000
    O5198   O    0.60668   0.50722   0.43420   1.000
    O5199   O    0.50721   0.60667   0.43420   1.000
    O5200   O    0.60668   0.45191   0.43420   1.000
    O5201   O    0.45192   0.60667   0.43420   1.000
    O5202   O    0.50721   0.45191   0.43420   1.000
    O5203   O    0.84079   0.40581   0.43957   1.000
    O5204   O    0.40581   0.31384   0.43957   1.000
    O5205   O    0.31384   0.84079   0.43957   1.000
    O5206   O    0.31384   0.40581   0.43957   1.000
    O5207   O    0.84079   0.31384   0.43957   1.000
    O5208   O    0.40581   0.84079   0.43957   1.000
    O5209   O    0.90487   0.72589   0.43783   1.000
    O5210   O    0.93141   0.72589   0.43783   1.000
    O5211   O    0.90487   0.93141   0.43783   1.000
    O5212   O    0.93141   0.90487   0.43783   1.000
    O5213   O    0.72589   0.90487   0.43783   1.000
    O5214   O    0.72590   0.93141   0.43783   1.000
    O5215   O    0.46217   0.30229   0.43152   1.000
    O5216   O    0.44186   0.30458   0.44186   1.000
    O5217   O    0.30228   0.80402   0.43152   1.000
    O5218   O    0.30458   0.81170   0.44186   1.000
    O5219   O    0.46217   0.80402   0.43152   1.000
    O5220   O    0.44186   0.81170   0.44186   1.000
    O5221   O    0.30228   0.46218   0.43152   1.000
    O5222   O    0.30458   0.44186   0.44186   1.000
    O5223   O    0.80402   0.46218   0.43152   1.000
    O5224   O    0.81170   0.44186   0.44186   1.000
    O5225   O    0.80402   0.30229   0.43152   1.000
    O5226   O    0.81170   0.30458   0.44186   1.000
    O5227   O    0.54258   0.95849   0.43341   1.000
    O5228   O    0.52507   0.97437   0.44549   1.000
    O5229   O    0.95850   0.54259   0.43341   1.000
    O5230   O    0.97437   0.52507   0.44549   1.000
    O5231   O    0.95849   0.06551   0.43341   1.000
    O5232   O    0.97437   0.05507   0.44549   1.000
    O5233   O    0.06552   0.54259   0.43341   1.000
    O5234   O    0.05508   0.52507   0.44549   1.000
    O5235   O    0.54258   0.06551   0.43341   1.000
    O5236   O    0.52506   0.05507   0.44549   1.000
    O5237   O    0.06552   0.95849   0.43341   1.000
    O5238   O    0.05507   0.97437   0.44549   1.000
    O5239   O    0.55425   0.93915   0.44252   1.000
    O5240   O    0.06409   0.93915   0.44252   1.000
    O5241   O    0.93914   0.06409   0.44252   1.000
    O5242   O    0.06408   0.55425   0.44252   1.000
    O5243   O    0.93914   0.55425   0.44252   1.000
    O5244   O    0.55424   0.06409   0.44252   1.000
    O5245   O    0.94353   0.87834   0.44166   1.000
    O5246   O    0.73646   0.87834   0.44166   1.000
    O5247   O    0.87834   0.94354   0.44166   1.000
    O5248   O    0.94353   0.73647   0.44166   1.000
    O5249   O    0.73646   0.94354   0.44166   1.000
    O5250   O    0.87833   0.73647   0.44166   1.000
    O5251   O    0.80814   0.80814   0.43830   1.000
    O5252   O    0.78783   0.81848   0.44598   1.000
    O5253   O    0.81848   0.78782   0.44598   1.000
    O5254   O    0.80814   0.94542   0.43830   1.000
    O5255   O    0.81848   0.94772   0.44598   1.000
    O5256   O    0.94542   0.80814   0.43830   1.000
    O5257   O    0.94772   0.78782   0.44598   1.000
    O5258   O    0.94772   0.81848   0.44598   1.000
    O5259   O    0.78782   0.94772   0.44598   1.000
    O5260   O    0.52392   0.44234   0.44234   1.000
    O5261   O    0.54139   0.43214   0.45140   1.000
    O5262   O    0.52392   0.59140   0.44234   1.000
    O5263   O    0.54139   0.57506   0.45140   1.000
    O5264   O    0.59140   0.52392   0.44234   1.000
    O5265   O    0.57506   0.54139   0.45140   1.000
    O5266   O    0.44234   0.59140   0.44234   1.000
    O5267   O    0.43214   0.57506   0.45140   1.000
    O5268   O    0.44234   0.52392   0.44234   1.000
    O5269   O    0.43214   0.54139   0.45140   1.000
    O5270   O    0.59140   0.44234   0.44234   1.000
    O5271   O    0.57506   0.43214   0.45140   1.000
    O5272   O    0.60668   0.50721   0.45192   1.000
    O5273   O    0.50721   0.43419   0.45192   1.000
    O5274   O    0.43419   0.60667   0.45192   1.000
    O5275   O    0.43419   0.50721   0.45192   1.000
    O5276   O    0.60667   0.43419   0.45192   1.000
    O5277   O    0.50722   0.60667   0.45192   1.000
    O5278   O    0.65060   0.41340   0.45769   1.000
    O5279   O    0.41341   0.47831   0.45769   1.000
    O5280   O    0.41340   0.65060   0.45769   1.000
    O5281   O    0.65060   0.47831   0.45769   1.000
    O5282   O    0.47831   0.65060   0.45769   1.000
    O5283   O    0.47831   0.41340   0.45769   1.000
    O5284   O    0.90055   0.94482   0.45256   1.000
    O5285   O    0.88577   0.93009   0.46194   1.000
    O5286   O    0.70205   0.90055   0.45256   1.000
    O5287   O    0.72220   0.88577   0.46194   1.000
    O5288   O    0.90055   0.70205   0.45256   1.000
    O5289   O    0.88577   0.72220   0.46194   1.000
    O5290   O    0.94482   0.90055   0.45256   1.000
    O5291   O    0.93008   0.88577   0.46194   1.000
    O5292   O    0.70205   0.94482   0.45256   1.000
    O5293   O    0.72220   0.93009   0.46194   1.000
    O5294   O    0.94482   0.70205   0.45256   1.000
    O5295   O    0.93009   0.72220   0.46194   1.000
    O5296   O    0.41854   0.30774   0.45236   1.000
    O5297   O    0.39430   0.31158   0.46328   1.000
    O5298   O    0.41854   0.82137   0.45236   1.000
    O5299   O    0.39430   0.83083   0.46328   1.000
    O5300   O    0.30773   0.41854   0.45236   1.000
    O5301   O    0.31158   0.39430   0.46328   1.000
    O5302   O    0.82137   0.41854   0.45236   1.000
    O5303   O    0.83083   0.39430   0.46328   1.000
    O5304   O    0.30773   0.82137   0.45236   1.000
    O5305   O    0.31158   0.83083   0.46328   1.000
    O5306   O    0.82137   0.30774   0.45236   1.000
    O5307   O    0.83084   0.31158   0.46328   1.000
    O5308   O    0.30228   0.43152   0.46218   1.000
    O5309   O    0.30228   0.80402   0.46218   1.000
    O5310   O    0.80402   0.43152   0.46218   1.000
    O5311   O    0.80402   0.30229   0.46218   1.000
    O5312   O    0.43152   0.30229   0.46218   1.000
    O5313   O    0.43152   0.80402   0.46218   1.000
    O5314   O    0.63755   0.46299   0.46300   1.000
    O5315   O    0.63755   0.43647   0.46300   1.000
    O5316   O    0.46299   0.63754   0.46300   1.000
    O5317   O    0.46300   0.43647   0.46300   1.000
    O5318   O    0.98937   0.04446   0.45717   1.000
    O5319   O    0.01045   0.03110   0.46824   1.000
    O5320   O    0.50900   0.04446   0.45717   1.000
    O5321   O    0.49022   0.03110   0.46824   1.000
    O5322   O    0.98937   0.50899   0.45717   1.000
    O5323   O    0.01045   0.49022   0.46824   1.000
    O5324   O    0.50899   0.98937   0.45717   1.000
    O5325   O    0.49022   0.01045   0.46824   1.000
    O5326   O    0.04447   0.50899   0.45717   1.000
    O5327   O    0.03110   0.49022   0.46824   1.000
    O5328   O    0.04447   0.98937   0.45717   1.000
    O5329   O    0.03110   0.01045   0.46824   1.000
    O5330   O    0.04236   0.96967   0.46814   1.000
    O5331   O    0.96967   0.51984   0.46814   1.000
    O5332   O    0.04236   0.51984   0.46814   1.000
    O5333   O    0.51984   0.96967   0.46814   1.000
    O5334   O    0.51984   0.04236   0.46814   1.000
    O5335   O    0.96967   0.04236   0.46814   1.000
    O5336   O    0.92156   0.93929   0.46068   1.000
    O5337   O    0.93929   0.67847   0.46068   1.000
    O5338   O    0.67847   0.93929   0.46068   1.000
    O5339   O    0.93929   0.92156   0.46068   1.000
    O5340   O    0.92156   0.67847   0.46068   1.000
    O5341   O    0.67847   0.92156   0.46068   1.000
    O5342   O    0.42240   0.55834   0.46092   1.000
    O5343   O    0.41484   0.57346   0.46857   1.000
    O5344   O    0.55834   0.42240   0.46092   1.000
    O5345   O    0.54312   0.41484   0.46857   1.000
    O5346   O    0.55834   0.55834   0.46092   1.000
    O5347   O    0.54313   0.57346   0.46857   1.000
    O5348   O    0.41484   0.54312   0.46857   1.000
    O5349   O    0.57346   0.54312   0.46857   1.000
    O5350   O    0.57345   0.41484   0.46857   1.000
    O5351   O    0.48699   0.62437   0.46644   1.000
    O5352   O    0.42219   0.62437   0.46644   1.000
    O5353   O    0.48699   0.42219   0.46644   1.000
    O5354   O    0.62437   0.48700   0.46644   1.000
    O5355   O    0.62437   0.42219   0.46644   1.000
    O5356   O    0.42219   0.48700   0.46644   1.000
    O5357   O    0.93715   0.65785   0.46785   1.000
    O5358   O    0.93715   0.93715   0.46785   1.000
    O5359   O    0.65785   0.93715   0.46785   1.000
    O5360   O    0.83918   0.31598   0.47333   1.000
    O5361   O    0.85169   0.32271   0.48231   1.000
    O5362   O    0.37151   0.83918   0.47333   1.000
    O5363   O    0.34328   0.85169   0.48231   1.000
    O5364   O    0.83918   0.37151   0.47333   1.000
    O5365   O    0.85169   0.34328   0.48231   1.000
    O5366   O    0.31598   0.83918   0.47333   1.000
    O5367   O    0.32271   0.85169   0.48231   1.000
    O5368   O    0.37151   0.31598   0.47333   1.000
    O5369   O    0.34328   0.32271   0.48231   1.000
    O5370   O    0.31598   0.37151   0.47333   1.000
    O5371   O    0.32271   0.34328   0.48231   1.000
    O5372   O    0.65060   0.45768   0.47831   1.000
    O5373   O    0.62437   0.46644   0.48700   1.000
    O5374   O    0.45769   0.41340   0.47831   1.000
    O5375   O    0.46644   0.42220   0.48700   1.000
    O5376   O    0.45769   0.65060   0.47831   1.000
    O5377   O    0.46644   0.62437   0.48700   1.000
    O5378   O    0.41341   0.65060   0.47831   1.000
    O5379   O    0.42220   0.62437   0.48700   1.000
    O5380   O    0.41340   0.45768   0.47831   1.000
    O5381   O    0.42219   0.46644   0.48700   1.000
    O5382   O    0.65060   0.41340   0.47831   1.000
    O5383   O    0.62437   0.42220   0.48700   1.000
    O5384   O    0.95384   0.93464   0.47542   1.000
    O5385   O    0.93464   0.95384   0.47542   1.000
    O5386   O    0.93464   0.63611   0.47542   1.000
    O5387   O    0.95384   0.63611   0.47542   1.000
    O5388   O    0.63610   0.93464   0.47542   1.000
    O5389   O    0.63611   0.95384   0.47542   1.000
    O5390   O    0.91814   0.97167   0.47614   1.000
    O5391   O    0.97166   0.91815   0.47614   1.000
    O5392   O    0.63405   0.97167   0.47614   1.000
    O5393   O    0.63406   0.91815   0.47614   1.000
    O5394   O    0.97167   0.63406   0.47614   1.000
    O5395   O    0.91814   0.63406   0.47614   1.000
    O5396   O    0.38295   0.30932   0.48581   1.000
    O5397   O    0.38295   0.82191   0.48581   1.000
    O5398   O    0.30932   0.38295   0.48581   1.000
    O5399   O    0.30932   0.82191   0.48581   1.000
    O5400   O    0.82191   0.38295   0.48581   1.000
    O5401   O    0.82192   0.30932   0.48581   1.000
    O5402   O    0.90475   0.88697   0.48240   1.000
    O5403   O    0.72589   0.88697   0.48240   1.000
    O5404   O    0.88697   0.90475   0.48240   1.000
    O5405   O    0.72588   0.90475   0.48240   1.000
    O5406   O    0.88697   0.72588   0.48240   1.000
    O5407   O    0.90475   0.72588   0.48240   1.000
    O5408   O    0.93187   0.61530   0.48256   1.000
    O5409   O    0.61530   0.93187   0.48256   1.000
    O5410   O    0.97027   0.93187   0.48256   1.000
    O5411   O    0.61530   0.97027   0.48256   1.000
    O5412   O    0.97027   0.61530   0.48256   1.000
    O5413   O    0.93186   0.97027   0.48256   1.000
    O5414   O    0.96119   0.02595   0.49551   1.000
    O5415   O    0.51737   0.96118   0.49551   1.000
    O5416   O    0.02595   0.96118   0.49551   1.000
    O5417   O    0.51737   0.02595   0.49551   1.000
    O5418   O    0.96118   0.51737   0.49551   1.000
    O5419   O    0.02595   0.51737   0.49551   1.000
    O5420   O    0.01045   0.03110   0.49022   1.000
    O5421   O    0.03110   0.01045   0.49022   1.000
    O5422   O    0.46823   0.03110   0.49022   1.000
    O5423   O    0.46823   0.01045   0.49022   1.000
    O5424   O    0.03110   0.46824   0.49022   1.000
    O5425   O    0.01045   0.46824   0.49022   1.000
    O5426   O    0.41360   0.66813   0.48693   1.000
    O5427   O    0.43135   0.66813   0.48693   1.000
    O5428   O    0.66813   0.41360   0.48693   1.000
    O5429   O    0.41359   0.43135   0.48693   1.000
    O5430   O    0.66813   0.43135   0.48693   1.000
    O5431   O    0.43135   0.41360   0.48693   1.000
    O5432   O    0.98407   0.93044   0.48887   1.000
    O5433   O    0.96758   0.94836   0.48963   1.000
    O5434   O    0.93044   0.98408   0.48887   1.000
    O5435   O    0.94836   0.96757   0.48963   1.000
    O5436   O    0.59662   0.93044   0.48887   1.000
    O5437   O    0.59443   0.94836   0.48963   1.000
    O5438   O    0.98408   0.59662   0.48887   1.000
    O5439   O    0.96758   0.59443   0.48963   1.000
    O5440   O    0.59662   0.98408   0.48887   1.000
    O5441   O    0.59443   0.96757   0.48963   1.000
    O5442   O    0.93044   0.59662   0.48887   1.000
    O5443   O    0.94836   0.59443   0.48963   1.000
    O5444   O    0.88506   0.88505   0.49961   1.000
    O5445   O    0.73028   0.88505   0.49961   1.000
    O5446   O    0.88505   0.73028   0.49961   1.000
    O5447   O    0.41110   0.41110   0.49423   1.000
    O5448   O    0.41110   0.68356   0.49423   1.000
    O5449   O    0.68356   0.41110   0.49423   1.000
    O5450   O    0.57340   0.96518   0.49626   1.000
    O5451   O    0.96517   0.96518   0.49626   1.000
    O5452   O    0.96518   0.57339   0.49626   1.000
    O5453   O    0.30795   0.32843   0.50198   1.000
    O5454   O    0.32843   0.30795   0.50198   1.000
    O5455   O    0.86164   0.32843   0.50198   1.000
    O5456   O    0.86164   0.30795   0.50198   1.000
    O5457   O    0.30795   0.86164   0.50198   1.000
    O5458   O    0.32843   0.86164   0.50198   1.000
    O5459   O    0.37167   0.80834   0.51354   1.000
    O5460   O    0.37167   0.30646   0.51354   1.000
    O5461   O    0.80834   0.37167   0.51354   1.000
    O5462   O    0.30647   0.37167   0.51354   1.000
    O5463   O    0.30646   0.80834   0.51354   1.000
    O5464   O    0.80834   0.30646   0.51354   1.000
    O5465   O    0.69997   0.40879   0.50171   1.000
    O5466   O    0.69997   0.38953   0.50171   1.000
    O5467   O    0.40879   0.38953   0.50171   1.000
    O5468   O    0.38953   0.40879   0.50171   1.000
    O5469   O    0.40879   0.69997   0.50171   1.000
    O5470   O    0.38953   0.69997   0.50171   1.000
    O5471   O    0.96327   0.55351   0.50223   1.000
    O5472   O    0.98099   0.55351   0.50223   1.000
    O5473   O    0.55351   0.98100   0.50223   1.000
    O5474   O    0.55351   0.96327   0.50223   1.000
    O5475   O    0.98100   0.96327   0.50223   1.000
    O5476   O    0.96327   0.98100   0.50223   1.000
    O5477   O    0.45717   0.04446   0.50900   1.000
    O5478   O    0.04447   0.45717   0.50900   1.000
    O5479   O    0.98937   0.45717   0.50900   1.000
    O5480   O    0.98937   0.04446   0.50900   1.000
    O5481   O    0.04446   0.98937   0.50900   1.000
    O5482   O    0.45717   0.98937   0.50900   1.000
    O5483   O    0.42492   0.37126   0.50238   1.000
    O5484   O    0.70144   0.37126   0.50238   1.000
    O5485   O    0.37126   0.70144   0.50238   1.000
    O5486   O    0.70144   0.42492   0.50238   1.000
    O5487   O    0.37126   0.42492   0.50238   1.000
    O5488   O    0.42492   0.70144   0.50238   1.000
    O5489   O    0.50700   0.97974   0.50701   1.000
    O5490   O    0.50701   0.00626   0.50701   1.000
    O5491   O    0.97974   0.50700   0.50701   1.000
    O5492   O    0.00625   0.50700   0.50701   1.000
    O5493   O    0.97974   0.00626   0.50701   1.000
    O5494   O    0.00626   0.97974   0.50701   1.000
    O5495   O    0.43420   0.45191   0.50722   1.000
    O5496   O    0.45192   0.43419   0.50722   1.000
    O5497   O    0.43419   0.60667   0.50722   1.000
    O5498   O    0.60668   0.45191   0.50722   1.000
    O5499   O    0.60667   0.43419   0.50722   1.000
    O5500   O    0.45192   0.60667   0.50722   1.000
    O5501   O    0.95879   0.52998   0.50820   1.000
    O5502   O    0.00304   0.52998   0.50820   1.000
    O5503   O    0.52998   0.00304   0.50820   1.000
    O5504   O    0.00304   0.95879   0.50820   1.000
    O5505   O    0.52997   0.95879   0.50820   1.000
    O5506   O    0.95879   0.00304   0.50820   1.000
    O5507   O    0.40705   0.71618   0.50825   1.000
    O5508   O    0.71618   0.40705   0.50825   1.000
    O5509   O    0.40705   0.36853   0.50825   1.000
    O5510   O    0.36853   0.40705   0.50825   1.000
    O5511   O    0.36853   0.71618   0.50825   1.000
    O5512   O    0.71617   0.36853   0.50825   1.000
    O5513   O    0.28160   0.86231   0.51971   1.000
    O5514   O    0.86231   0.33639   0.51971   1.000
    O5515   O    0.28160   0.33639   0.51971   1.000
    O5516   O    0.86231   0.28160   0.51971   1.000
    O5517   O    0.33639   0.28160   0.51971   1.000
    O5518   O    0.33639   0.86231   0.51971   1.000
    O5519   O    0.88316   0.86389   0.51741   1.000
    O5520   O    0.86389   0.88316   0.51741   1.000
    O5521   O    0.86390   0.73554   0.51741   1.000
    O5522   O    0.88316   0.73554   0.51741   1.000
    O5523   O    0.73553   0.88316   0.51741   1.000
    O5524   O    0.73553   0.86389   0.51741   1.000
    O5525   O    0.44234   0.44234   0.52392   1.000
    O5526   O    0.44234   0.59140   0.52392   1.000
    O5527   O    0.59140   0.44234   0.52392   1.000
    O5528   O    0.96119   0.49550   0.51737   1.000
    O5529   O    0.95879   0.50820   0.52998   1.000
    O5530   O    0.02595   0.49550   0.51737   1.000
    O5531   O    0.00304   0.50820   0.52998   1.000
    O5532   O    0.49551   0.96119   0.51737   1.000
    O5533   O    0.50820   0.95879   0.52998   1.000
    O5534   O    0.49550   0.02595   0.51737   1.000
    O5535   O    0.50820   0.00304   0.52998   1.000
    O5536   O    0.96118   0.02595   0.51737   1.000
    O5537   O    0.95879   0.00304   0.52998   1.000
    O5538   O    0.02595   0.96119   0.51737   1.000
    O5539   O    0.00303   0.95879   0.52998   1.000
    O5540   O    0.73106   0.35069   0.51389   1.000
    O5541   O    0.73259   0.36684   0.51447   1.000
    O5542   O    0.40436   0.73106   0.51389   1.000
    O5543   O    0.38611   0.73259   0.51447   1.000
    O5544   O    0.35069   0.73106   0.51389   1.000
    O5545   O    0.36684   0.73259   0.51447   1.000
    O5546   O    0.35069   0.40436   0.51389   1.000
    O5547   O    0.36684   0.38611   0.51447   1.000
    O5548   O    0.73106   0.40436   0.51389   1.000
    O5549   O    0.73259   0.38611   0.51447   1.000
    O5550   O    0.40436   0.35069   0.51389   1.000
    O5551   O    0.38611   0.36684   0.51447   1.000
    O5552   O    0.07160   0.40856   0.52180   1.000
    O5553   O    0.99804   0.40856   0.52180   1.000
    O5554   O    0.99803   0.07161   0.52180   1.000
    O5555   O    0.40856   0.07161   0.52180   1.000
    O5556   O    0.07160   0.99804   0.52180   1.000
    O5557   O    0.40856   0.99804   0.52180   1.000
    O5558   O    0.73611   0.89930   0.51895   1.000
    O5559   O    0.84564   0.89930   0.51895   1.000
    O5560   O    0.89931   0.84564   0.51895   1.000
    O5561   O    0.89930   0.73611   0.51895   1.000
    O5562   O    0.73611   0.84564   0.51895   1.000
    O5563   O    0.84564   0.73611   0.51895   1.000
    O5564   O    0.36495   0.75039   0.51972   1.000
    O5565   O    0.75039   0.36494   0.51972   1.000
    O5566   O    0.36495   0.36494   0.51972   1.000
    O5567   O    0.46813   0.04236   0.51984   1.000
    O5568   O    0.44549   0.05507   0.52507   1.000
    O5569   O    0.46814   0.96967   0.51984   1.000
    O5570   O    0.44549   0.97437   0.52507   1.000
    O5571   O    0.04236   0.46814   0.51984   1.000
    O5572   O    0.05508   0.44549   0.52507   1.000
    O5573   O    0.96967   0.46814   0.51984   1.000
    O5574   O    0.97437   0.44549   0.52507   1.000
    O5575   O    0.96967   0.04236   0.51984   1.000
    O5576   O    0.97437   0.05507   0.52507   1.000
    O5577   O    0.04236   0.96967   0.51984   1.000
    O5578   O    0.05508   0.97437   0.52507   1.000
    O5579   O    0.31859   0.34513   0.52411   1.000
    O5580   O    0.34513   0.31860   0.52411   1.000
    O5581   O    0.81217   0.34513   0.52411   1.000
    O5582   O    0.81217   0.31860   0.52411   1.000
    O5583   O    0.31860   0.81217   0.52411   1.000
    O5584   O    0.34513   0.81217   0.52411   1.000
    O5585   O    0.36303   0.34525   0.52412   1.000
    O5586   O    0.34525   0.36303   0.52412   1.000
    O5587   O    0.36303   0.76761   0.52412   1.000
    O5588   O    0.34525   0.76761   0.52412   1.000
    O5589   O    0.76760   0.34525   0.52412   1.000
    O5590   O    0.76760   0.36303   0.52412   1.000
    O5591   O    0.84295   0.74175   0.53383   1.000
    O5592   O    0.88148   0.74175   0.53383   1.000
    O5593   O    0.74175   0.88148   0.53383   1.000
    O5594   O    0.88148   0.84295   0.53383   1.000
    O5595   O    0.74175   0.84295   0.53383   1.000
    O5596   O    0.84295   0.88148   0.53383   1.000
    O5597   O    0.31642   0.24962   0.53020   1.000
    O5598   O    0.90376   0.24962   0.53020   1.000
    O5599   O    0.24962   0.90376   0.53020   1.000
    O5600   O    0.31641   0.90376   0.53020   1.000
    O5601   O    0.90376   0.31642   0.53020   1.000
    O5602   O    0.24962   0.31642   0.53020   1.000
    O5603   O    0.78806   0.31992   0.52780   1.000
    O5604   O    0.36423   0.31992   0.52780   1.000
    O5605   O    0.78807   0.36423   0.52780   1.000
    O5606   O    0.36423   0.78807   0.52780   1.000
    O5607   O    0.31992   0.78807   0.52780   1.000
    O5608   O    0.31992   0.36423   0.52780   1.000
    O5609   O    0.27525   0.34749   0.53244   1.000
    O5610   O    0.25988   0.34069   0.53409   1.000
    O5611   O    0.84482   0.27525   0.53244   1.000
    O5612   O    0.86534   0.25988   0.53409   1.000
    O5613   O    0.27525   0.84482   0.53244   1.000
    O5614   O    0.25988   0.86534   0.53409   1.000
    O5615   O    0.34749   0.84482   0.53244   1.000
    O5616   O    0.34069   0.86534   0.53409   1.000
    O5617   O    0.34749   0.27525   0.53244   1.000
    O5618   O    0.34069   0.25988   0.53409   1.000
    O5619   O    0.84482   0.34749   0.53244   1.000
    O5620   O    0.86535   0.34069   0.53409   1.000
    O5621   O    0.97960   0.06822   0.53096   1.000
    O5622   O    0.98524   0.08011   0.53701   1.000
    O5623   O    0.06822   0.97960   0.53096   1.000
    O5624   O    0.08011   0.98524   0.53701   1.000
    O5625   O    0.06822   0.42122   0.53096   1.000
    O5626   O    0.08011   0.39763   0.53701   1.000
    O5627   O    0.42122   0.97960   0.53096   1.000
    O5628   O    0.39763   0.98524   0.53701   1.000
    O5629   O    0.97960   0.42122   0.53096   1.000
    O5630   O    0.98524   0.39763   0.53701   1.000
    O5631   O    0.42122   0.06822   0.53096   1.000
    O5632   O    0.39763   0.08011   0.53701   1.000
    O5633   O    0.29201   0.81806   0.53346   1.000
    O5634   O    0.30518   0.79744   0.54795   1.000
    O5635   O    0.29201   0.35648   0.53346   1.000
    O5636   O    0.30517   0.34945   0.54795   1.000
    O5637   O    0.35647   0.29201   0.53346   1.000
    O5638   O    0.34944   0.30518   0.54795   1.000
    O5639   O    0.81806   0.35648   0.53346   1.000
    O5640   O    0.79744   0.34945   0.54795   1.000
    O5641   O    0.35647   0.81806   0.53346   1.000
    O5642   O    0.34945   0.79744   0.54795   1.000
    O5643   O    0.81806   0.29201   0.53346   1.000
    O5644   O    0.79744   0.30518   0.54795   1.000
    O5645   O    0.06552   0.43341   0.54259   1.000
    O5646   O    0.95850   0.43341   0.54259   1.000
    O5647   O    0.95849   0.06552   0.54259   1.000
    O5648   O    0.43341   0.95850   0.54259   1.000
    O5649   O    0.43340   0.06552   0.54259   1.000
    O5650   O    0.06551   0.95850   0.54259   1.000
    O5651   O    0.43214   0.45140   0.54139   1.000
    O5652   O    0.45140   0.43214   0.54139   1.000
    O5653   O    0.43214   0.57506   0.54139   1.000
    O5654   O    0.45140   0.57506   0.54139   1.000
    O5655   O    0.57506   0.43214   0.54139   1.000
    O5656   O    0.57506   0.45140   0.54139   1.000
    O5657   O    0.24433   0.33098   0.53809   1.000
    O5658   O    0.22972   0.32056   0.54285   1.000
    O5659   O    0.88660   0.24433   0.53809   1.000
    O5660   O    0.90686   0.22972   0.54285   1.000
    O5661   O    0.33098   0.24433   0.53809   1.000
    O5662   O    0.32056   0.22972   0.54285   1.000
    O5663   O    0.24433   0.88660   0.53809   1.000
    O5664   O    0.22972   0.90686   0.54285   1.000
    O5665   O    0.88660   0.33098   0.53809   1.000
    O5666   O    0.90686   0.32056   0.54285   1.000
    O5667   O    0.33098   0.88660   0.53809   1.000
    O5668   O    0.32057   0.90686   0.54285   1.000
    O5669   O    0.41484   0.57346   0.54313   1.000
    O5670   O    0.46857   0.57346   0.54313   1.000
    O5671   O    0.57345   0.46857   0.54313   1.000
    O5672   O    0.57345   0.41485   0.54313   1.000
    O5673   O    0.41484   0.46857   0.54313   1.000
    O5674   O    0.46857   0.41485   0.54313   1.000
    O5675   O    0.23655   0.34705   0.54790   1.000
    O5676   O    0.23655   0.86850   0.54790   1.000
    O5677   O    0.86850   0.34705   0.54790   1.000
    O5678   O    0.34705   0.23655   0.54790   1.000
    O5679   O    0.86850   0.23655   0.54790   1.000
    O5680   O    0.34705   0.86850   0.54790   1.000
    O5681   O    0.98913   0.09062   0.54318   1.000
    O5682   O    0.09062   0.98913   0.54318   1.000
    O5683   O    0.98913   0.37706   0.54318   1.000
    O5684   O    0.37706   0.98913   0.54318   1.000
    O5685   O    0.09062   0.37706   0.54318   1.000
    O5686   O    0.37706   0.09062   0.54318   1.000
    O5687   O    0.82508   0.74762   0.54856   1.000
    O5688   O    0.84121   0.74829   0.55003   1.000
    O5689   O    0.87874   0.74762   0.54856   1.000
    O5690   O    0.86047   0.74829   0.55003   1.000
    O5691   O    0.74762   0.87874   0.54856   1.000
    O5692   O    0.74830   0.86047   0.55003   1.000
    O5693   O    0.74762   0.82508   0.54856   1.000
    O5694   O    0.74829   0.84121   0.55003   1.000
    O5695   O    0.87874   0.82508   0.54856   1.000
    O5696   O    0.86047   0.84121   0.55003   1.000
    O5697   O    0.82508   0.87874   0.54856   1.000
    O5698   O    0.84121   0.86047   0.55003   1.000
    O5699   O    0.08916   0.96981   0.55477   1.000
    O5700   O    0.38625   0.96981   0.55477   1.000
    O5701   O    0.38625   0.08916   0.55477   1.000
    O5702   O    0.96981   0.38625   0.55477   1.000
    O5703   O    0.08917   0.38625   0.55477   1.000
    O5704   O    0.96981   0.08916   0.55477   1.000
    O5705   O    0.92400   0.31186   0.54814   1.000
    O5706   O    0.21601   0.92399   0.54814   1.000
    O5707   O    0.21601   0.31186   0.54814   1.000
    O5708   O    0.31186   0.21601   0.54814   1.000
    O5709   O    0.92400   0.21601   0.54814   1.000
    O5710   O    0.31186   0.92399   0.54814   1.000
    O5711   O    0.55833   0.42240   0.55834   1.000
    O5712   O    0.42240   0.46092   0.55834   1.000
    O5713   O    0.55834   0.46092   0.55834   1.000
    O5714   O    0.46092   0.42240   0.55834   1.000
    O5715   O    0.42240   0.55834   0.55834   1.000
    O5716   O    0.46092   0.55834   0.55834   1.000
    O5717   O    0.96327   0.50223   0.55351   1.000
    O5718   O    0.98099   0.96327   0.55351   1.000
    O5719   O    0.50222   0.96327   0.55351   1.000
    O5720   O    0.96327   0.98100   0.55351   1.000
    O5721   O    0.50223   0.98100   0.55351   1.000
    O5722   O    0.98100   0.50223   0.55351   1.000
    O5723   O    0.20749   0.32594   0.55777   1.000
    O5724   O    0.32594   0.90881   0.55777   1.000
    O5725   O    0.90881   0.20748   0.55777   1.000
    O5726   O    0.90881   0.32594   0.55777   1.000
    O5727   O    0.32594   0.20748   0.55777   1.000
    O5728   O    0.20748   0.90881   0.55777   1.000
    O5729   O    0.44252   0.93915   0.55425   1.000
    O5730   O    0.42205   0.94305   0.56027   1.000
    O5731   O    0.93914   0.44252   0.55425   1.000
    O5732   O    0.94305   0.42205   0.56027   1.000
    O5733   O    0.06409   0.44252   0.55425   1.000
    O5734   O    0.07463   0.42205   0.56027   1.000
    O5735   O    0.06408   0.93915   0.55425   1.000
    O5736   O    0.07464   0.94305   0.56027   1.000
    O5737   O    0.93915   0.06409   0.55425   1.000
    O5738   O    0.94305   0.07463   0.56027   1.000
    O5739   O    0.44252   0.06409   0.55425   1.000
    O5740   O    0.42205   0.07463   0.56027   1.000
    O5741   O    0.83889   0.83890   0.56644   1.000
    O5742   O    0.83889   0.75577   0.56644   1.000
    O5743   O    0.75577   0.83890   0.56644   1.000
    O5744   O    0.22783   0.36126   0.55744   1.000
    O5745   O    0.21426   0.35274   0.56237   1.000
    O5746   O    0.22783   0.85347   0.55744   1.000
    O5747   O    0.21426   0.87062   0.56237   1.000
    O5748   O    0.85347   0.36126   0.55744   1.000
    O5749   O    0.87062   0.35274   0.56237   1.000
    O5750   O    0.85347   0.22783   0.55744   1.000
    O5751   O    0.87063   0.21425   0.56237   1.000
    O5752   O    0.36126   0.85347   0.55744   1.000
    O5753   O    0.35275   0.87062   0.56237   1.000
    O5754   O    0.36126   0.22783   0.55744   1.000
    O5755   O    0.35274   0.21425   0.56237   1.000
    O5756   O    0.96517   0.49625   0.57339   1.000
    O5757   O    0.49626   0.96518   0.57339   1.000
    O5758   O    0.96517   0.96518   0.57339   1.000
    O5759   O    0.39848   0.08639   0.56640   1.000
    O5760   O    0.37418   0.09863   0.57320   1.000
    O5761   O    0.94872   0.08639   0.56640   1.000
    O5762   O    0.95399   0.09863   0.57320   1.000
    O5763   O    0.08640   0.39848   0.56640   1.000
    O5764   O    0.09863   0.37418   0.57320   1.000
    O5765   O    0.94872   0.39848   0.56640   1.000
    O5766   O    0.95399   0.37418   0.57320   1.000
    O5767   O    0.39848   0.94872   0.56640   1.000
    O5768   O    0.37418   0.95399   0.57320   1.000
    O5769   O    0.08640   0.94872   0.56640   1.000
    O5770   O    0.09863   0.95399   0.57320   1.000
    O5771   O    0.78932   0.31071   0.57153   1.000
    O5772   O    0.32844   0.31071   0.57153   1.000
    O5773   O    0.32844   0.78933   0.57153   1.000
    O5774   O    0.31070   0.32844   0.57153   1.000
    O5775   O    0.31070   0.78933   0.57153   1.000
    O5776   O    0.78932   0.32844   0.57153   1.000
    O5777   O    0.19980   0.34205   0.56748   1.000
    O5778   O    0.18475   0.33080   0.57404   1.000
    O5779   O    0.34205   0.19980   0.56748   1.000
    O5780   O    0.33080   0.18475   0.57404   1.000
    O5781   O    0.89066   0.34205   0.56748   1.000
    O5782   O    0.91041   0.33080   0.57404   1.000
    O5783   O    0.89066   0.19980   0.56748   1.000
    O5784   O    0.91041   0.18475   0.57404   1.000
    O5785   O    0.34205   0.89066   0.56748   1.000
    O5786   O    0.33081   0.91041   0.57404   1.000
    O5787   O    0.19980   0.89066   0.56748   1.000
    O5788   O    0.18475   0.91041   0.57404   1.000
    O5789   O    0.08291   0.93034   0.57556   1.000
    O5790   O    0.93033   0.08291   0.57556   1.000
    O5791   O    0.41119   0.93034   0.57556   1.000
    O5792   O    0.93033   0.41119   0.57556   1.000
    O5793   O    0.41119   0.08291   0.57556   1.000
    O5794   O    0.08291   0.41119   0.57556   1.000
    O5795   O    0.87346   0.35686   0.57506   1.000
    O5796   O    0.19462   0.35686   0.57506   1.000
    O5797   O    0.87346   0.19462   0.57506   1.000
    O5798   O    0.35685   0.19462   0.57506   1.000
    O5799   O    0.35686   0.87346   0.57506   1.000
    O5800   O    0.19462   0.87346   0.57506   1.000
    O5801   O    0.46857   0.54312   0.57346   1.000
    O5802   O    0.45140   0.54139   0.57507   1.000
    O5803   O    0.41485   0.54312   0.57346   1.000
    O5804   O    0.43214   0.54139   0.57507   1.000
    O5805   O    0.41484   0.46857   0.57346   1.000
    O5806   O    0.43214   0.45140   0.57507   1.000
    O5807   O    0.46857   0.41485   0.57346   1.000
    O5808   O    0.45140   0.43214   0.57507   1.000
    O5809   O    0.54312   0.41485   0.57346   1.000
    O5810   O    0.54139   0.43214   0.57507   1.000
    O5811   O    0.54312   0.46857   0.57346   1.000
    O5812   O    0.54139   0.45140   0.57507   1.000
    O5813   O    0.35129   0.95825   0.57946   1.000
    O5814   O    0.32320   0.96613   0.58477   1.000
    O5815   O    0.95824   0.35129   0.57946   1.000
    O5816   O    0.96613   0.32320   0.58477   1.000
    O5817   O    0.95824   0.11100   0.57946   1.000
    O5818   O    0.96613   0.12590   0.58477   1.000
    O5819   O    0.11100   0.95825   0.57946   1.000
    O5820   O    0.12590   0.96613   0.58477   1.000
    O5821   O    0.35129   0.11100   0.57946   1.000
    O5822   O    0.32320   0.12590   0.58477   1.000
    O5823   O    0.11100   0.35129   0.57946   1.000
    O5824   O    0.12590   0.32320   0.58477   1.000
    O5825   O    0.83641   0.81865   0.58187   1.000
    O5826   O    0.81865   0.83641   0.58187   1.000
    O5827   O    0.76307   0.81865   0.58187   1.000
    O5828   O    0.76307   0.83641   0.58187   1.000
    O5829   O    0.81865   0.76308   0.58187   1.000
    O5830   O    0.83640   0.76308   0.58187   1.000
    O5831   O    0.31285   0.31285   0.59215   1.000
    O5832   O    0.31285   0.78215   0.59215   1.000
    O5833   O    0.78215   0.31285   0.59215   1.000
    O5834   O    0.32177   0.16897   0.57983   1.000
    O5835   O    0.31034   0.15084   0.58502   1.000
    O5836   O    0.16897   0.92944   0.57983   1.000
    O5837   O    0.15083   0.95381   0.58502   1.000
    O5838   O    0.32177   0.92944   0.57983   1.000
    O5839   O    0.31034   0.95381   0.58502   1.000
    O5840   O    0.92944   0.32177   0.57983   1.000
    O5841   O    0.95381   0.31034   0.58502   1.000
    O5842   O    0.92944   0.16897   0.57983   1.000
    O5843   O    0.95381   0.15084   0.58502   1.000
    O5844   O    0.16897   0.32177   0.57983   1.000
    O5845   O    0.15083   0.31034   0.58502   1.000
    O5846   O    0.44234   0.52392   0.59140   1.000
    O5847   O    0.52392   0.44234   0.59140   1.000
    O5848   O    0.44234   0.44234   0.59140   1.000
    O5849   O    0.10696   0.93945   0.59085   1.000
    O5850   O    0.93945   0.10696   0.59085   1.000
    O5851   O    0.36274   0.93945   0.59085   1.000
    O5852   O    0.10695   0.36274   0.59085   1.000
    O5853   O    0.93945   0.36274   0.59085   1.000
    O5854   O    0.36274   0.10696   0.59085   1.000
    O5855   O    0.16470   0.91079   0.59068   1.000
    O5856   O    0.16470   0.33384   0.59068   1.000
    O5857   O    0.91078   0.33384   0.59068   1.000
    O5858   O    0.91078   0.16470   0.59068   1.000
    O5859   O    0.33384   0.91079   0.59068   1.000
    O5860   O    0.33384   0.16470   0.59068   1.000
    O5861   O    0.20047   0.97620   0.59217   1.000
    O5862   O    0.97620   0.23116   0.59217   1.000
    O5863   O    0.97620   0.20047   0.59217   1.000
    O5864   O    0.23116   0.97620   0.59217   1.000
    O5865   O    0.20047   0.23116   0.59217   1.000
    O5866   O    0.23116   0.20047   0.59217   1.000
    O5867   O    0.04051   0.29605   0.59230   1.000
    O5868   O    0.04051   0.07115   0.59230   1.000
    O5869   O    0.29605   0.04051   0.59230   1.000
    O5870   O    0.29605   0.07115   0.59230   1.000
    O5871   O    0.07115   0.29605   0.59230   1.000
    O5872   O    0.07115   0.04051   0.59230   1.000
    O5873   O    0.79231   0.77169   0.59940   1.000
    O5874   O    0.77169   0.79231   0.59940   1.000
    O5875   O    0.83660   0.79231   0.59940   1.000
    O5876   O    0.77169   0.83660   0.59940   1.000
    O5877   O    0.83660   0.77169   0.59940   1.000
    O5878   O    0.79231   0.83660   0.59940   1.000
    O5879   O    0.48963   0.96758   0.59444   1.000
    O5880   O    0.48963   0.94836   0.59444   1.000
    O5881   O    0.96758   0.48963   0.59444   1.000
    O5882   O    0.94836   0.48963   0.59444   1.000
    O5883   O    0.94836   0.96758   0.59444   1.000
    O5884   O    0.96758   0.94836   0.59444   1.000
    O5885   O    0.48887   0.93044   0.59662   1.000
    O5886   O    0.93044   0.48887   0.59662   1.000
    O5887   O    0.93044   0.98407   0.59662   1.000
    O5888   O    0.98407   0.93044   0.59662   1.000
    O5889   O    0.48886   0.98407   0.59662   1.000
    O5890   O    0.98408   0.48887   0.59662   1.000
    O5891   O    0.30112   0.12118   0.59775   1.000
    O5892   O    0.28816   0.14646   0.59780   1.000
    O5893   O    0.30792   0.13038   0.60865   1.000
    O5894   O    0.30112   0.97995   0.59775   1.000
    O5895   O    0.28815   0.96759   0.59780   1.000
    O5896   O    0.97995   0.30112   0.59775   1.000
    O5897   O    0.96759   0.28815   0.59780   1.000
    O5898   O    0.12118   0.97995   0.59775   1.000
    O5899   O    0.14646   0.96759   0.59780   1.000
    O5900   O    0.12118   0.30112   0.59775   1.000
    O5901   O    0.14646   0.28815   0.59780   1.000
    O5902   O    0.13038   0.30793   0.60865   1.000
    O5903   O    0.97995   0.12118   0.59775   1.000
    O5904   O    0.96759   0.14646   0.59780   1.000
    O5905   O    0.90674   0.14119   0.61222   1.000
    O5906   O    0.33986   0.90675   0.61222   1.000
    O5907   O    0.14118   0.33986   0.61222   1.000
    O5908   O    0.14119   0.90675   0.61222   1.000
    O5909   O    0.33986   0.14119   0.61222   1.000
    O5910   O    0.90674   0.33986   0.61222   1.000
    O5911   O    0.91893   0.35209   0.61250   1.000
    O5912   O    0.35209   0.91893   0.61250   1.000
    O5913   O    0.11647   0.35209   0.61250   1.000
    O5914   O    0.11648   0.91893   0.61250   1.000
    O5915   O    0.35209   0.11647   0.61250   1.000
    O5916   O    0.91893   0.11647   0.61250   1.000
    O5917   O    0.21267   0.97322   0.60143   1.000
    O5918   O    0.22592   0.96908   0.61319   1.000
    O5919   O    0.21267   0.21267   0.60143   1.000
    O5920   O    0.19182   0.22592   0.61319   1.000
    O5921   O    0.19181   0.96908   0.61319   1.000
    O5922   O    0.97322   0.21267   0.60143   1.000
    O5923   O    0.96908   0.22592   0.61319   1.000
    O5924   O    0.22592   0.19181   0.61319   1.000
    O5925   O    0.96908   0.19181   0.61319   1.000
    O5926   O    0.29274   0.05284   0.60157   1.000
    O5927   O    0.28890   0.06594   0.61332   1.000
    O5928   O    0.05284   0.29274   0.60157   1.000
    O5929   O    0.03184   0.28890   0.61332   1.000
    O5930   O    0.06594   0.28890   0.61332   1.000
    O5931   O    0.28890   0.03184   0.61332   1.000
    O5932   O    0.05284   0.05284   0.60157   1.000
    O5933   O    0.06594   0.03184   0.61332   1.000
    O5934   O    0.03184   0.06594   0.61332   1.000
    O5935   O    0.97027   0.48256   0.61530   1.000
    O5936   O    0.48256   0.97027   0.61530   1.000
    O5937   O    0.93186   0.48256   0.61530   1.000
    O5938   O    0.48256   0.93186   0.61530   1.000
    O5939   O    0.93186   0.97027   0.61530   1.000
    O5940   O    0.97028   0.93186   0.61530   1.000
    O5941   O    0.45192   0.43419   0.60668   1.000
    O5942   O    0.43419   0.45191   0.60668   1.000
    O5943   O    0.45192   0.50721   0.60668   1.000
    O5944   O    0.43419   0.50721   0.60668   1.000
    O5945   O    0.50722   0.45191   0.60668   1.000
    O5946   O    0.50721   0.43419   0.60668   1.000
    O5947   O    0.29195   0.99534   0.61409   1.000
    O5948   O    0.09861   0.99534   0.61409   1.000
    O5949   O    0.29195   0.09861   0.61409   1.000
    O5950   O    0.99534   0.29195   0.61409   1.000
    O5951   O    0.99534   0.09861   0.61409   1.000
    O5952   O    0.09862   0.29195   0.61409   1.000
    O5953   O    0.15826   0.96580   0.61416   1.000
    O5954   O    0.26179   0.15825   0.61416   1.000
    O5955   O    0.96580   0.26179   0.61416   1.000
    O5956   O    0.96580   0.15825   0.61416   1.000
    O5957   O    0.15826   0.26179   0.61416   1.000
    O5958   O    0.26180   0.96580   0.61416   1.000
    O5959   O    0.29616   0.77458   0.61390   1.000
    O5960   O    0.31536   0.77458   0.61390   1.000
    O5961   O    0.29616   0.31535   0.61390   1.000
    O5962   O    0.31535   0.29616   0.61390   1.000
    O5963   O    0.77459   0.31535   0.61390   1.000
    O5964   O    0.77459   0.29616   0.61390   1.000
    O5965   O    0.33185   0.77387   0.61595   1.000
    O5966   O    0.27833   0.77387   0.61595   1.000
    O5967   O    0.33185   0.27833   0.61595   1.000
    O5968   O    0.77387   0.33185   0.61595   1.000
    O5969   O    0.77387   0.27833   0.61595   1.000
    O5970   O    0.27834   0.33185   0.61595   1.000
    O5971   O    0.48699   0.46644   0.62437   1.000
    O5972   O    0.46644   0.42219   0.62437   1.000
    O5973   O    0.42219   0.46644   0.62437   1.000
    O5974   O    0.46644   0.48700   0.62437   1.000
    O5975   O    0.42219   0.48700   0.62437   1.000
    O5976   O    0.48699   0.42219   0.62437   1.000
    O5977   O    0.78701   0.81353   0.61246   1.000
    O5978   O    0.78700   0.78701   0.61246   1.000
    O5979   O    0.82780   0.76300   0.62563   1.000
    O5980   O    0.82780   0.78356   0.62563   1.000
    O5981   O    0.76300   0.82780   0.62563   1.000
    O5982   O    0.78356   0.82780   0.62563   1.000
    O5983   O    0.76301   0.78356   0.62563   1.000
    O5984   O    0.78356   0.76300   0.62563   1.000
    O5985   O    0.27973   0.31813   0.63470   1.000
    O5986   O    0.76744   0.31813   0.63470   1.000
    O5987   O    0.31813   0.27973   0.63470   1.000
    O5988   O    0.76744   0.27973   0.63470   1.000
    O5989   O    0.27972   0.76744   0.63470   1.000
    O5990   O    0.31813   0.76744   0.63470   1.000
    O5991   O    0.24050   0.96376   0.62498   1.000
    O5992   O    0.21816   0.96110   0.63669   1.000
    O5993   O    0.96376   0.17077   0.62498   1.000
    O5994   O    0.96110   0.18406   0.63669   1.000
    O5995   O    0.17077   0.96376   0.62498   1.000
    O5996   O    0.18406   0.96110   0.63669   1.000
    O5997   O    0.96376   0.24050   0.62498   1.000
    O5998   O    0.96110   0.21816   0.63669   1.000
    O5999   O    0.17077   0.24050   0.62498   1.000
    O6000   O    0.18406   0.21816   0.63669   1.000
    O6001   O    0.24050   0.17077   0.62498   1.000
    O6002   O    0.21816   0.18406   0.63669   1.000
    O6003   O    0.00950   0.07923   0.62503   1.000
    O6004   O    0.98821   0.09175   0.63585   1.000
    O6005   O    0.07923   0.00950   0.62503   1.000
    O6006   O    0.09174   0.98821   0.63585   1.000
    O6007   O    0.07923   0.28624   0.62503   1.000
    O6008   O    0.09175   0.28420   0.63585   1.000
    O6009   O    0.28624   0.07923   0.62503   1.000
    O6010   O    0.28420   0.09175   0.63585   1.000
    O6011   O    0.28624   0.00950   0.62503   1.000
    O6012   O    0.28420   0.98821   0.63585   1.000
    O6013   O    0.00950   0.28624   0.62503   1.000
    O6014   O    0.98821   0.28420   0.63585   1.000
    O6015   O    0.32536   0.12500   0.62500   1.000
    O6016   O    0.33107   0.13352   0.63750   1.000
    O6017   O    0.34325   0.10881   0.63779   1.000
    O6018   O    0.12500   0.92463   0.62500   1.000
    O6019   O    0.13352   0.89791   0.63750   1.000
    O6020   O    0.10881   0.91014   0.63779   1.000
    O6021   O    0.92463   0.32536   0.62500   1.000
    O6022   O    0.94207   0.29696   0.64135   1.000
    O6023   O    0.11961   0.94207   0.64135   1.000
    O6024   O    0.12500   0.32536   0.62500   1.000
    O6025   O    0.13353   0.33107   0.63750   1.000
    O6026   O    0.10881   0.34325   0.63779   1.000
    O6027   O    0.32537   0.92463   0.62500   1.000
    O6028   O    0.33107   0.89791   0.63750   1.000
    O6029   O    0.34325   0.91014   0.63779   1.000
    O6030   O    0.29696   0.94207   0.64135   1.000
    O6031   O    0.89791   0.33107   0.63750   1.000
    O6032   O    0.91014   0.34325   0.63779   1.000
    O6033   O    0.92463   0.12500   0.62500   1.000
    O6034   O    0.94207   0.11962   0.64135   1.000
    O6035   O    0.89791   0.13352   0.63750   1.000
    O6036   O    0.91014   0.10881   0.63779   1.000
    O6037   O    0.15139   0.95805   0.63591   1.000
    O6038   O    0.25465   0.15139   0.63591   1.000
    O6039   O    0.95805   0.15139   0.63591   1.000
    O6040   O    0.95805   0.25465   0.63591   1.000
    O6041   O    0.15139   0.25465   0.63591   1.000
    O6042   O    0.25465   0.95805   0.63591   1.000
    O6043   O    0.02408   0.28092   0.63681   1.000
    O6044   O    0.28092   0.05819   0.63681   1.000
    O6045   O    0.05819   0.28092   0.63681   1.000
    O6046   O    0.05819   0.02408   0.63681   1.000
    O6047   O    0.02408   0.05819   0.63681   1.000
    O6048   O    0.28092   0.02408   0.63681   1.000
    O6049   O    0.47613   0.91815   0.63406   1.000
    O6050   O    0.47542   0.93464   0.63611   1.000
    O6051   O    0.97167   0.47613   0.63406   1.000
    O6052   O    0.95384   0.47542   0.63611   1.000
    O6053   O    0.91815   0.97166   0.63406   1.000
    O6054   O    0.93465   0.95384   0.63611   1.000
    O6055   O    0.97166   0.91815   0.63406   1.000
    O6056   O    0.95384   0.93464   0.63611   1.000
    O6057   O    0.47614   0.97166   0.63406   1.000
    O6058   O    0.47542   0.95384   0.63611   1.000
    O6059   O    0.91815   0.47613   0.63406   1.000
    O6060   O    0.93465   0.47542   0.63611   1.000
    O6061   O    0.46300   0.46299   0.63755   1.000
    O6062   O    0.47831   0.45768   0.65060   1.000
    O6063   O    0.45769   0.47831   0.65060   1.000
    O6064   O    0.41340   0.45768   0.65060   1.000
    O6065   O    0.41341   0.47831   0.65060   1.000
    O6066   O    0.46300   0.43647   0.63755   1.000
    O6067   O    0.45768   0.41340   0.65060   1.000
    O6068   O    0.47831   0.41340   0.65060   1.000
    O6069   O    0.74279   0.81581   0.64333   1.000
    O6070   O    0.74279   0.79808   0.64333   1.000
    O6071   O    0.81581   0.74279   0.64333   1.000
    O6072   O    0.79808   0.74279   0.64333   1.000
    O6073   O    0.79809   0.81581   0.64333   1.000
    O6074   O    0.81581   0.79808   0.64333   1.000
    O6075   O    0.93716   0.93716   0.65785   1.000
    O6076   O    0.93716   0.46785   0.65785   1.000
    O6077   O    0.46785   0.93716   0.65785   1.000
    O6078   O    0.28241   0.96185   0.65220   1.000
    O6079   O    0.96184   0.10354   0.65220   1.000
    O6080   O    0.10354   0.96185   0.65220   1.000
    O6081   O    0.10354   0.28241   0.65220   1.000
    O6082   O    0.96184   0.28241   0.65220   1.000
    O6083   O    0.28241   0.10354   0.65220   1.000
    O6084   O    0.12882   0.94888   0.65226   1.000
    O6085   O    0.12882   0.27005   0.65226   1.000
    O6086   O    0.27005   0.12882   0.65226   1.000
    O6087   O    0.94888   0.12882   0.65226   1.000
    O6088   O    0.27005   0.94888   0.65226   1.000
    O6089   O    0.94887   0.27005   0.65226   1.000
    O6090   O    0.80766   0.80766   0.65860   1.000
    O6091   O    0.72608   0.80766   0.65860   1.000
    O6092   O    0.80766   0.72608   0.65860   1.000
    O6093   O    0.31956   0.76114   0.65338   1.000
    O6094   O    0.30164   0.76037   0.65557   1.000
    O6095   O    0.76114   0.31956   0.65338   1.000
    O6096   O    0.76037   0.30164   0.65557   1.000
    O6097   O    0.26592   0.76114   0.65338   1.000
    O6098   O    0.28242   0.76037   0.65557   1.000
    O6099   O    0.26593   0.31956   0.65338   1.000
    O6100   O    0.28243   0.30164   0.65557   1.000
    O6101   O    0.31956   0.26592   0.65338   1.000
    O6102   O    0.30164   0.28243   0.65557   1.000
    O6103   O    0.76114   0.26592   0.65338   1.000
    O6104   O    0.76037   0.28243   0.65557   1.000
    O6105   O    0.95726   0.19715   0.64843   1.000
    O6106   O    0.95395   0.20949   0.65771   1.000
    O6107   O    0.19715   0.95726   0.64843   1.000
    O6108   O    0.20949   0.95395   0.65771   1.000
    O6109   O    0.19715   0.19715   0.64843   1.000
    O6110   O    0.20949   0.17885   0.65771   1.000
    O6111   O    0.17885   0.20949   0.65771   1.000
    O6112   O    0.17885   0.95395   0.65771   1.000
    O6113   O    0.95395   0.17885   0.65771   1.000
    O6114   O    0.03733   0.03732   0.64857   1.000
    O6115   O    0.01884   0.04953   0.65784   1.000
    O6116   O    0.04953   0.01884   0.65784   1.000
    O6117   O    0.27678   0.03732   0.64857   1.000
    O6118   O    0.27380   0.01884   0.65784   1.000
    O6119   O    0.03733   0.27678   0.64857   1.000
    O6120   O    0.04953   0.27380   0.65784   1.000
    O6121   O    0.27380   0.04953   0.65784   1.000
    O6122   O    0.01884   0.27380   0.65784   1.000
    O6123   O    0.88725   0.14305   0.65916   1.000
    O6124   O    0.14304   0.31055   0.65916   1.000
    O6125   O    0.31055   0.14305   0.65916   1.000
    O6126   O    0.88725   0.31055   0.65916   1.000
    O6127   O    0.14304   0.88725   0.65916   1.000
    O6128   O    0.31055   0.88725   0.65916   1.000
    O6129   O    0.33921   0.91616   0.65933   1.000
    O6130   O    0.33921   0.08529   0.65933   1.000
    O6131   O    0.91616   0.33921   0.65933   1.000
    O6132   O    0.08529   0.33921   0.65933   1.000
    O6133   O    0.91615   0.08529   0.65933   1.000
    O6134   O    0.08529   0.91616   0.65933   1.000
    O6135   O    0.93966   0.29620   0.66499   1.000
    O6136   O    0.92680   0.28387   0.66523   1.000
    O6137   O    0.29619   0.09917   0.66499   1.000
    O6138   O    0.28387   0.12410   0.66523   1.000
    O6139   O    0.09916   0.29620   0.66499   1.000
    O6140   O    0.12410   0.28387   0.66523   1.000
    O6141   O    0.93966   0.09917   0.66499   1.000
    O6142   O    0.92680   0.12410   0.66523   1.000
    O6143   O    0.29620   0.93965   0.66499   1.000
    O6144   O    0.28387   0.92680   0.66523   1.000
    O6145   O    0.09916   0.93965   0.66499   1.000
    O6146   O    0.12409   0.92680   0.66523   1.000
    O6147   O    0.28482   0.28482   0.67661   1.000
    O6148   O    0.28483   0.75374   0.67661   1.000
    O6149   O    0.75374   0.28482   0.67661   1.000
    O6150   O    0.41360   0.43135   0.66814   1.000
    O6151   O    0.43135   0.41359   0.66814   1.000
    O6152   O    0.48693   0.41359   0.66814   1.000
    O6153   O    0.48693   0.43135   0.66814   1.000
    O6154   O    0.41359   0.48693   0.66814   1.000
    O6155   O    0.43135   0.48693   0.66814   1.000
    O6156   O    0.83881   0.16709   0.67444   1.000
    O6157   O    0.31966   0.16709   0.67444   1.000
    O6158   O    0.16709   0.31967   0.67444   1.000
    O6159   O    0.83881   0.31967   0.67444   1.000
    O6160   O    0.16709   0.83881   0.67444   1.000
    O6161   O    0.31966   0.83881   0.67444   1.000
    O6162   O    0.32056   0.08103   0.67018   1.000
    O6163   O    0.33959   0.06524   0.67597   1.000
    O6164   O    0.08103   0.32056   0.67018   1.000
    O6165   O    0.06525   0.33959   0.67597   1.000
    O6166   O    0.92823   0.08103   0.67018   1.000
    O6167   O    0.91919   0.06524   0.67597   1.000
    O6168   O    0.08103   0.92823   0.67018   1.000
    O6169   O    0.06525   0.91919   0.67597   1.000
    O6170   O    0.92823   0.32056   0.67018   1.000
    O6171   O    0.91919   0.33959   0.67597   1.000
    O6172   O    0.32056   0.92823   0.67018   1.000
    O6173   O    0.33959   0.91919   0.67597   1.000
    O6174   O    0.89871   0.13900   0.67054   1.000
    O6175   O    0.87582   0.15137   0.67680   1.000
    O6176   O    0.29175   0.13900   0.67054   1.000
    O6177   O    0.29601   0.15137   0.67680   1.000
    O6178   O    0.29175   0.89871   0.67054   1.000
    O6179   O    0.29601   0.87582   0.67680   1.000
    O6180   O    0.13900   0.29175   0.67054   1.000
    O6181   O    0.15137   0.29601   0.67680   1.000
    O6182   O    0.89870   0.29175   0.67054   1.000
    O6183   O    0.87582   0.29601   0.67680   1.000
    O6184   O    0.13900   0.89871   0.67054   1.000
    O6185   O    0.15137   0.87582   0.67680   1.000
    O6186   O    0.89314   0.37654   0.67494   1.000
    O6187   O    0.89314   0.05538   0.67494   1.000
    O6188   O    0.37654   0.89314   0.67494   1.000
    O6189   O    0.05538   0.89314   0.67494   1.000
    O6190   O    0.37654   0.05538   0.67494   1.000
    O6191   O    0.05538   0.37654   0.67494   1.000
    O6192   O    0.79860   0.70861   0.67494   1.000
    O6193   O    0.81786   0.70861   0.67494   1.000
    O6194   O    0.70861   0.79860   0.67494   1.000
    O6195   O    0.70861   0.81786   0.67494   1.000
    O6196   O    0.81786   0.79860   0.67494   1.000
    O6197   O    0.79860   0.81786   0.67494   1.000
    O6198   O    0.92156   0.93929   0.67847   1.000
    O6199   O    0.93929   0.92156   0.67847   1.000
    O6200   O    0.46068   0.93929   0.67847   1.000
    O6201   O    0.46067   0.92156   0.67847   1.000
    O6202   O    0.93929   0.46068   0.67847   1.000
    O6203   O    0.92156   0.46068   0.67847   1.000
    O6204   O    0.70688   0.78143   0.67655   1.000
    O6205   O    0.78143   0.83515   0.67655   1.000
    O6206   O    0.70687   0.83515   0.67655   1.000
    O6207   O    0.83515   0.70688   0.67655   1.000
    O6208   O    0.78143   0.70688   0.67655   1.000
    O6209   O    0.83515   0.78143   0.67655   1.000
    O6210   O    0.41111   0.41110   0.68356   1.000
    O6211   O    0.41111   0.49423   0.68356   1.000
    O6212   O    0.49423   0.41110   0.68356   1.000
    O6213   O    0.69166   0.78908   0.69167   1.000
    O6214   O    0.82760   0.78908   0.69167   1.000
    O6215   O    0.78908   0.69167   0.69167   1.000
    O6216   O    0.82760   0.69167   0.69167   1.000
    O6217   O    0.69167   0.82760   0.69167   1.000
    O6218   O    0.78908   0.82760   0.69167   1.000
    O6219   O    0.90795   0.35933   0.68252   1.000
    O6220   O    0.89725   0.37938   0.68764   1.000
    O6221   O    0.05020   0.35933   0.68252   1.000
    O6222   O    0.03574   0.37938   0.68764   1.000
    O6223   O    0.05020   0.90795   0.68252   1.000
    O6224   O    0.03574   0.89725   0.68764   1.000
    O6225   O    0.90795   0.05020   0.68252   1.000
    O6226   O    0.89725   0.03574   0.68764   1.000
    O6227   O    0.35933   0.05020   0.68252   1.000
    O6228   O    0.37937   0.03574   0.68764   1.000
    O6229   O    0.35934   0.90795   0.68252   1.000
    O6230   O    0.37938   0.89725   0.68764   1.000
    O6231   O    0.16361   0.30128   0.68360   1.000
    O6232   O    0.17536   0.30695   0.68974   1.000
    O6233   O    0.85152   0.16361   0.68360   1.000
    O6234   O    0.82795   0.17536   0.68974   1.000
    O6235   O    0.30128   0.16361   0.68360   1.000
    O6236   O    0.30695   0.17536   0.68974   1.000
    O6237   O    0.30128   0.85152   0.68360   1.000
    O6238   O    0.30695   0.82795   0.68974   1.000
    O6239   O    0.16361   0.85152   0.68360   1.000
    O6240   O    0.17536   0.82795   0.68974   1.000
    O6241   O    0.85152   0.30128   0.68360   1.000
    O6242   O    0.82795   0.30695   0.68974   1.000
    O6243   O    0.92406   0.34119   0.69224   1.000
    O6244   O    0.04251   0.92406   0.69224   1.000
    O6245   O    0.34119   0.92406   0.69224   1.000
    O6246   O    0.92406   0.04251   0.69224   1.000
    O6247   O    0.34119   0.04251   0.69224   1.000
    O6248   O    0.04252   0.34119   0.69224   1.000
    O6249   O    0.45256   0.94483   0.70205   1.000
    O6250   O    0.45256   0.90055   0.70205   1.000
    O6251   O    0.90055   0.94483   0.70205   1.000
    O6252   O    0.94482   0.45256   0.70205   1.000
    O6253   O    0.94482   0.90055   0.70205   1.000
    O6254   O    0.90055   0.45256   0.70205   1.000
    O6255   O    0.16084   0.86374   0.69523   1.000
    O6256   O    0.16083   0.28019   0.69523   1.000
    O6257   O    0.86374   0.16083   0.69523   1.000
    O6258   O    0.28019   0.16083   0.69523   1.000
    O6259   O    0.28019   0.86374   0.69523   1.000
    O6260   O    0.86374   0.28019   0.69523   1.000
    O6261   O    0.28673   0.74777   0.69649   1.000
    O6262   O    0.26901   0.74777   0.69649   1.000
    O6263   O    0.28673   0.26901   0.69649   1.000
    O6264   O    0.26901   0.28673   0.69649   1.000
    O6265   O    0.74777   0.26901   0.69649   1.000
    O6266   O    0.74778   0.28673   0.69649   1.000
    O6267   O    0.02217   0.88874   0.69257   1.000
    O6268   O    0.88874   0.39653   0.69257   1.000
    O6269   O    0.02217   0.39653   0.69257   1.000
    O6270   O    0.88874   0.02217   0.69257   1.000
    O6271   O    0.39653   0.02217   0.69257   1.000
    O6272   O    0.39653   0.88874   0.69257   1.000
    O6273   O    0.31085   0.18592   0.69576   1.000
    O6274   O    0.18591   0.80748   0.69576   1.000
    O6275   O    0.31085   0.80748   0.69576   1.000
    O6276   O    0.18591   0.31086   0.69576   1.000
    O6277   O    0.80748   0.31086   0.69576   1.000
    O6278   O    0.80748   0.18592   0.69576   1.000
    O6279   O    0.38150   0.01345   0.70211   1.000
    O6280   O    0.38150   0.90295   0.70211   1.000
    O6281   O    0.90295   0.01345   0.70211   1.000
    O6282   O    0.01345   0.38150   0.70211   1.000
    O6283   O    0.01345   0.90295   0.70211   1.000
    O6284   O    0.90295   0.38150   0.70211   1.000
    O6285   O    0.50171   0.40879   0.69997   1.000
    O6286   O    0.50170   0.38953   0.69997   1.000
    O6287   O    0.38953   0.40879   0.69997   1.000
    O6288   O    0.40879   0.38953   0.69997   1.000
    O6289   O    0.38953   0.50171   0.69997   1.000
    O6290   O    0.40879   0.50171   0.69997   1.000
    O6291   O    0.50238   0.42492   0.70144   1.000
    O6292   O    0.37126   0.42492   0.70144   1.000
    O6293   O    0.37126   0.50238   0.70144   1.000
    O6294   O    0.42492   0.50238   0.70144   1.000
    O6295   O    0.50238   0.37126   0.70144   1.000
    O6296   O    0.42492   0.37126   0.70144   1.000
    O6297   O    0.81660   0.18449   0.70742   1.000
    O6298   O    0.18448   0.81659   0.70742   1.000
    O6299   O    0.29151   0.18449   0.70742   1.000
    O6300   O    0.81659   0.29150   0.70742   1.000
    O6301   O    0.29150   0.81659   0.70742   1.000
    O6302   O    0.18449   0.29150   0.70742   1.000
    O6303   O    0.93814   0.32601   0.70186   1.000
    O6304   O    0.92943   0.34314   0.70715   1.000
    O6305   O    0.32600   0.03399   0.70186   1.000
    O6306   O    0.34313   0.02028   0.70715   1.000
    O6307   O    0.93814   0.03399   0.70186   1.000
    O6308   O    0.92943   0.02028   0.70715   1.000
    O6309   O    0.03399   0.32601   0.70186   1.000
    O6310   O    0.02028   0.34314   0.70715   1.000
    O6311   O    0.03399   0.93814   0.70186   1.000
    O6312   O    0.02028   0.92944   0.70715   1.000
    O6313   O    0.32601   0.93814   0.70186   1.000
    O6314   O    0.34313   0.92944   0.70715   1.000
    O6315   O    0.29121   0.74180   0.72003   1.000
    O6316   O    0.74180   0.24696   0.72003   1.000
    O6317   O    0.24696   0.74180   0.72003   1.000
    O6318   O    0.29121   0.24696   0.72003   1.000
    O6319   O    0.24696   0.29121   0.72003   1.000
    O6320   O    0.74180   0.29121   0.72003   1.000
    O6321   O    0.83515   0.67654   0.70688   1.000
    O6322   O    0.81786   0.67494   0.70861   1.000
    O6323   O    0.67654   0.78143   0.70688   1.000
    O6324   O    0.67493   0.79860   0.70861   1.000
    O6325   O    0.67654   0.83515   0.70688   1.000
    O6326   O    0.67494   0.81786   0.70861   1.000
    O6327   O    0.78143   0.83515   0.70688   1.000
    O6328   O    0.79860   0.81786   0.70861   1.000
    O6329   O    0.78143   0.67654   0.70688   1.000
    O6330   O    0.79860   0.67494   0.70861   1.000
    O6331   O    0.83515   0.78143   0.70688   1.000
    O6332   O    0.81786   0.79860   0.70861   1.000
    O6333   O    0.87294   0.15938   0.70683   1.000
    O6334   O    0.85237   0.16989   0.71300   1.000
    O6335   O    0.15938   0.87294   0.70683   1.000
    O6336   O    0.16989   0.85237   0.71300   1.000
    O6337   O    0.87294   0.26087   0.70683   1.000
    O6338   O    0.85237   0.26476   0.71300   1.000
    O6339   O    0.15938   0.26087   0.70683   1.000
    O6340   O    0.16989   0.26476   0.71300   1.000
    O6341   O    0.26086   0.15938   0.70683   1.000
    O6342   O    0.26476   0.16989   0.71300   1.000
    O6343   O    0.26086   0.87294   0.70683   1.000
    O6344   O    0.26476   0.85237   0.71300   1.000
    O6345   O    0.36852   0.50825   0.71618   1.000
    O6346   O    0.50825   0.40705   0.71618   1.000
    O6347   O    0.36852   0.40705   0.71618   1.000
    O6348   O    0.40705   0.50825   0.71618   1.000
    O6349   O    0.50825   0.36852   0.71618   1.000
    O6350   O    0.40705   0.36852   0.71618   1.000
    O6351   O    0.00567   0.91902   0.71191   1.000
    O6352   O    0.99012   0.90931   0.71592   1.000
    O6353   O    0.91902   0.36340   0.71191   1.000
    O6354   O    0.90931   0.38466   0.71592   1.000
    O6355   O    0.36340   0.00567   0.71191   1.000
    O6356   O    0.38465   0.99012   0.71592   1.000
    O6357   O    0.00567   0.36340   0.71191   1.000
    O6358   O    0.99012   0.38466   0.71592   1.000
    O6359   O    0.36340   0.91902   0.71191   1.000
    O6360   O    0.38465   0.90931   0.71592   1.000
    O6361   O    0.91902   0.00567   0.71191   1.000
    O6362   O    0.90931   0.99012   0.71592   1.000
    O6363   O    0.43194   0.89352   0.71655   1.000
    O6364   O    0.40518   0.90251   0.71757   1.000
    O6365   O    0.95799   0.89352   0.71655   1.000
    O6366   O    0.97475   0.90251   0.71757   1.000
    O6367   O    0.89353   0.43194   0.71655   1.000
    O6368   O    0.90251   0.40518   0.71757   1.000
    O6369   O    0.89352   0.95799   0.71655   1.000
    O6370   O    0.90251   0.97475   0.71757   1.000
    O6371   O    0.95799   0.43194   0.71655   1.000
    O6372   O    0.97475   0.40518   0.71757   1.000
    O6373   O    0.43194   0.95799   0.71655   1.000
    O6374   O    0.40518   0.97475   0.71757   1.000
    O6375   O    0.93358   0.00038   0.71980   1.000
    O6376   O    0.34624   0.93359   0.71980   1.000
    O6377   O    0.00038   0.34624   0.71980   1.000
    O6378   O    0.93359   0.34624   0.71980   1.000
    O6379   O    0.00038   0.93359   0.71980   1.000
    O6380   O    0.34624   0.00038   0.71980   1.000
    O6381   O    0.65860   0.80766   0.72608   1.000
    O6382   O    0.80766   0.80766   0.72608   1.000
    O6383   O    0.80766   0.65860   0.72608   1.000
    O6384   O    0.82878   0.27040   0.71905   1.000
    O6385   O    0.80451   0.27563   0.72494   1.000
    O6386   O    0.18178   0.82878   0.71905   1.000
    O6387   O    0.19493   0.80451   0.72494   1.000
    O6388   O    0.27039   0.18178   0.71905   1.000
    O6389   O    0.27563   0.19492   0.72494   1.000
    O6390   O    0.18178   0.27040   0.71905   1.000
    O6391   O    0.19493   0.27563   0.72494   1.000
    O6392   O    0.27040   0.82878   0.71905   1.000
    O6393   O    0.27563   0.80451   0.72494   1.000
    O6394   O    0.82879   0.18178   0.71905   1.000
    O6395   O    0.80451   0.19492   0.72494   1.000
    O6396   O    0.46193   0.93008   0.72221   1.000
    O6397   O    0.43783   0.93141   0.72590   1.000
    O6398   O    0.44166   0.94354   0.73647   1.000
    O6399   O    0.88577   0.46193   0.72221   1.000
    O6400   O    0.90487   0.43783   0.72590   1.000
    O6401   O    0.87834   0.44166   0.73647   1.000
    O6402   O    0.93008   0.46193   0.72221   1.000
    O6403   O    0.93141   0.43783   0.72590   1.000
    O6404   O    0.94354   0.44166   0.73647   1.000
    O6405   O    0.46194   0.88577   0.72221   1.000
    O6406   O    0.43783   0.90487   0.72590   1.000
    O6407   O    0.44166   0.87833   0.73647   1.000
    O6408   O    0.93008   0.88577   0.72221   1.000
    O6409   O    0.93141   0.90487   0.72590   1.000
    O6410   O    0.94354   0.87833   0.73647   1.000
    O6411   O    0.88577   0.93008   0.72221   1.000
    O6412   O    0.90487   0.93141   0.72590   1.000
    O6413   O    0.87833   0.94354   0.73647   1.000
    O6414   O    0.17839   0.84144   0.72820   1.000
    O6415   O    0.17840   0.25196   0.72820   1.000
    O6416   O    0.84144   0.17839   0.72820   1.000
    O6417   O    0.25196   0.17839   0.72820   1.000
    O6418   O    0.84144   0.25196   0.72820   1.000
    O6419   O    0.25196   0.84144   0.72820   1.000
    O6420   O    0.96840   0.91361   0.73030   1.000
    O6421   O    0.91361   0.38769   0.73030   1.000
    O6422   O    0.38769   0.96840   0.73030   1.000
    O6423   O    0.91361   0.96840   0.73030   1.000
    O6424   O    0.38769   0.91361   0.73030   1.000
    O6425   O    0.96840   0.38769   0.73030   1.000
    O6426   O    0.90475   0.88697   0.72589   1.000
    O6427   O    0.88697   0.90475   0.72589   1.000
    O6428   O    0.48240   0.90475   0.72589   1.000
    O6429   O    0.88697   0.48239   0.72589   1.000
    O6430   O    0.48239   0.88697   0.72589   1.000
    O6431   O    0.90475   0.48239   0.72589   1.000
    O6432   O    0.40436   0.35070   0.73106   1.000
    O6433   O    0.38610   0.36684   0.73259   1.000
    O6434   O    0.51389   0.35070   0.73106   1.000
    O6435   O    0.51446   0.36684   0.73259   1.000
    O6436   O    0.35070   0.51389   0.73106   1.000
    O6437   O    0.36684   0.51447   0.73259   1.000
    O6438   O    0.51390   0.40436   0.73106   1.000
    O6439   O    0.51446   0.38611   0.73259   1.000
    O6440   O    0.35070   0.40436   0.73106   1.000
    O6441   O    0.36684   0.38611   0.73259   1.000
    O6442   O    0.40436   0.51389   0.73106   1.000
    O6443   O    0.38611   0.51447   0.73259   1.000
    O6444   O    0.88506   0.49961   0.73028   1.000
    O6445   O    0.49961   0.88505   0.73028   1.000
    O6446   O    0.88505   0.88505   0.73028   1.000
    O6447   O    0.28033   0.20764   0.73016   1.000
    O6448   O    0.28881   0.22405   0.73264   1.000
    O6449   O    0.28033   0.78186   0.73016   1.000
    O6450   O    0.28881   0.75450   0.73264   1.000
    O6451   O    0.20764   0.28033   0.73016   1.000
    O6452   O    0.22405   0.28881   0.73264   1.000
    O6453   O    0.78186   0.28033   0.73016   1.000
    O6454   O    0.75449   0.28881   0.73264   1.000
    O6455   O    0.20764   0.78186   0.73016   1.000
    O6456   O    0.22405   0.75450   0.73264   1.000
    O6457   O    0.78186   0.20764   0.73016   1.000
    O6458   O    0.75450   0.22405   0.73264   1.000
    O6459   O    0.20553   0.79283   0.74101   1.000
    O6460   O    0.26063   0.79283   0.74101   1.000
    O6461   O    0.20553   0.26063   0.74101   1.000
    O6462   O    0.79283   0.26063   0.74101   1.000
    O6463   O    0.79283   0.20553   0.74101   1.000
    O6464   O    0.26063   0.20553   0.74101   1.000
    O6465   O    0.86389   0.51741   0.73554   1.000
    O6466   O    0.88316   0.51741   0.73554   1.000
    O6467   O    0.51741   0.88316   0.73554   1.000
    O6468   O    0.51741   0.86390   0.73554   1.000
    O6469   O    0.88316   0.86390   0.73554   1.000
    O6470   O    0.86389   0.88316   0.73554   1.000
    O6471   O    0.51894   0.84564   0.73611   1.000
    O6472   O    0.89931   0.51894   0.73611   1.000
    O6473   O    0.84564   0.51894   0.73611   1.000
    O6474   O    0.89931   0.84564   0.73611   1.000
    O6475   O    0.51895   0.89931   0.73611   1.000
    O6476   O    0.84564   0.89931   0.73611   1.000
    O6477   O    0.84295   0.53382   0.74175   1.000
    O6478   O    0.88147   0.84295   0.74175   1.000
    O6479   O    0.88148   0.53382   0.74175   1.000
    O6480   O    0.53382   0.88147   0.74175   1.000
    O6481   O    0.53383   0.84295   0.74175   1.000
    O6482   O    0.84295   0.88147   0.74175   1.000
    O6483   O    0.72002   0.24697   0.74180   1.000
    O6484   O    0.74300   0.24375   0.74300   1.000
    O6485   O    0.73264   0.22405   0.75450   1.000
    O6486   O    0.29121   0.24697   0.74180   1.000
    O6487   O    0.27026   0.24375   0.74300   1.000
    O6488   O    0.28881   0.22405   0.75450   1.000
    O6489   O    0.72002   0.29121   0.74180   1.000
    O6490   O    0.74299   0.27027   0.74300   1.000
    O6491   O    0.73263   0.28882   0.75450   1.000
    O6492   O    0.24696   0.72002   0.74180   1.000
    O6493   O    0.24374   0.74299   0.74300   1.000
    O6494   O    0.22405   0.73263   0.75450   1.000
    O6495   O    0.24696   0.29121   0.74180   1.000
    O6496   O    0.24374   0.27027   0.74300   1.000
    O6497   O    0.22405   0.28882   0.75450   1.000
    O6498   O    0.29121   0.72002   0.74180   1.000
    O6499   O    0.27026   0.74299   0.74300   1.000
    O6500   O    0.28881   0.73263   0.75450   1.000
    O6501   O    0.79809   0.81581   0.74279   1.000
    O6502   O    0.81581   0.79809   0.74279   1.000
    O6503   O    0.64332   0.79809   0.74279   1.000
    O6504   O    0.64332   0.81581   0.74279   1.000
    O6505   O    0.81581   0.64332   0.74279   1.000
    O6506   O    0.79808   0.64332   0.74279   1.000
    O6507   O    0.36494   0.36494   0.75039   1.000
    O6508   O    0.51972   0.36494   0.75039   1.000
    O6509   O    0.36494   0.51972   0.75039   1.000
    O6510   O    0.94205   0.92157   0.74802   1.000
    O6511   O    0.94205   0.38836   0.74802   1.000
    O6512   O    0.92157   0.38836   0.74802   1.000
    O6513   O    0.92157   0.94205   0.74802   1.000
    O6514   O    0.38836   0.92157   0.74802   1.000
    O6515   O    0.38836   0.94205   0.74802   1.000
    O6516   O    0.87874   0.54856   0.74762   1.000
    O6517   O    0.86047   0.55003   0.74830   1.000
    O6518   O    0.54856   0.87874   0.74762   1.000
    O6519   O    0.55003   0.86047   0.74830   1.000
    O6520   O    0.54856   0.82508   0.74762   1.000
    O6521   O    0.55003   0.84121   0.74830   1.000
    O6522   O    0.82508   0.54856   0.74762   1.000
    O6523   O    0.84121   0.55003   0.74830   1.000
    O6524   O    0.87874   0.82508   0.74762   1.000
    O6525   O    0.86047   0.84121   0.74830   1.000
    O6526   O    0.82508   0.87874   0.74762   1.000
    O6527   O    0.84121   0.86047   0.74830   1.000
    O6528   O    0.28673   0.26901   0.74778   1.000
    O6529   O    0.26901   0.28673   0.74778   1.000
    O6530   O    0.28673   0.69649   0.74778   1.000
    O6531   O    0.69649   0.26901   0.74778   1.000
    O6532   O    0.69649   0.28673   0.74778   1.000
    O6533   O    0.26901   0.69649   0.74778   1.000
    O6534   O    0.82780   0.62563   0.76301   1.000
    O6535   O    0.78356   0.62563   0.76301   1.000
    O6536   O    0.62563   0.78356   0.76301   1.000
    O6537   O    0.78356   0.82781   0.76301   1.000
    O6538   O    0.62563   0.82781   0.76301   1.000
    O6539   O    0.82781   0.78356   0.76301   1.000
    O6540   O    0.21890   0.23955   0.75979   1.000
    O6541   O    0.21890   0.78177   0.75979   1.000
    O6542   O    0.23955   0.21890   0.75979   1.000
    O6543   O    0.23955   0.78177   0.75979   1.000
    O6544   O    0.78177   0.23955   0.75979   1.000
    O6545   O    0.78177   0.21890   0.75979   1.000
    O6546   O    0.28482   0.28483   0.75375   1.000
    O6547   O    0.67660   0.28483   0.75375   1.000
    O6548   O    0.28482   0.67661   0.75375   1.000
    O6549   O    0.83889   0.83890   0.75577   1.000
    O6550   O    0.83890   0.56644   0.75577   1.000
    O6551   O    0.56644   0.83890   0.75577   1.000
    O6552   O    0.94068   0.42808   0.76419   1.000
    O6553   O    0.94068   0.86705   0.76419   1.000
    O6554   O    0.42808   0.94068   0.76419   1.000
    O6555   O    0.42809   0.86705   0.76419   1.000
    O6556   O    0.86705   0.94068   0.76419   1.000
    O6557   O    0.86705   0.42808   0.76419   1.000
    O6558   O    0.90672   0.39830   0.76770   1.000
    O6559   O    0.92728   0.39830   0.76770   1.000
    O6560   O    0.39831   0.90672   0.76770   1.000
    O6561   O    0.39830   0.92729   0.76770   1.000
    O6562   O    0.90672   0.92729   0.76770   1.000
    O6563   O    0.92728   0.90672   0.76770   1.000
    O6564   O    0.30164   0.65557   0.76037   1.000
    O6565   O    0.28242   0.65557   0.76037   1.000
    O6566   O    0.28243   0.30164   0.76037   1.000
    O6567   O    0.30164   0.28243   0.76037   1.000
    O6568   O    0.65556   0.28243   0.76037   1.000
    O6569   O    0.65556   0.30164   0.76037   1.000
    O6570   O    0.65338   0.26592   0.76114   1.000
    O6571   O    0.26592   0.65338   0.76114   1.000
    O6572   O    0.65338   0.31956   0.76114   1.000
    O6573   O    0.26592   0.31956   0.76114   1.000
    O6574   O    0.31956   0.26592   0.76114   1.000
    O6575   O    0.31956   0.65338   0.76114   1.000
    O6576   O    0.58187   0.83640   0.76308   1.000
    O6577   O    0.58187   0.81865   0.76308   1.000
    O6578   O    0.81865   0.58187   0.76308   1.000
    O6579   O    0.83640   0.58187   0.76308   1.000
    O6580   O    0.83641   0.81865   0.76308   1.000
    O6581   O    0.81865   0.83640   0.76308   1.000
    O6582   O    0.52411   0.36303   0.76761   1.000
    O6583   O    0.52411   0.34525   0.76761   1.000
    O6584   O    0.34525   0.36303   0.76761   1.000
    O6585   O    0.36303   0.34525   0.76761   1.000
    O6586   O    0.36303   0.52411   0.76761   1.000
    O6587   O    0.34525   0.52411   0.76761   1.000
    O6588   O    0.63470   0.27973   0.76744   1.000
    O6589   O    0.27973   0.31814   0.76744   1.000
    O6590   O    0.63470   0.31814   0.76744   1.000
    O6591   O    0.31813   0.63470   0.76744   1.000
    O6592   O    0.27972   0.63470   0.76744   1.000
    O6593   O    0.31813   0.27973   0.76744   1.000
    O6594   O    0.59940   0.83659   0.77169   1.000
    O6595   O    0.79231   0.59940   0.77169   1.000
    O6596   O    0.83660   0.79231   0.77169   1.000
    O6597   O    0.59940   0.79231   0.77169   1.000
    O6598   O    0.79232   0.83659   0.77169   1.000
    O6599   O    0.83659   0.59940   0.77169   1.000
    O6600   O    0.21890   0.75978   0.78177   1.000
    O6601   O    0.23955   0.75978   0.78177   1.000
    O6602   O    0.75978   0.23955   0.78177   1.000
    O6603   O    0.75978   0.21890   0.78177   1.000
    O6604   O    0.21890   0.23955   0.78177   1.000
    O6605   O    0.23955   0.21890   0.78177   1.000
    O6606   O    0.73016   0.28033   0.78187   1.000
    O6607   O    0.20764   0.73016   0.78187   1.000
    O6608   O    0.73016   0.20764   0.78187   1.000
    O6609   O    0.28033   0.73016   0.78187   1.000
    O6610   O    0.20764   0.28033   0.78187   1.000
    O6611   O    0.28033   0.20764   0.78187   1.000
    O6612   O    0.33186   0.61595   0.77387   1.000
    O6613   O    0.31535   0.61390   0.77459   1.000
    O6614   O    0.61594   0.33186   0.77387   1.000
    O6615   O    0.61389   0.31535   0.77459   1.000
    O6616   O    0.27833   0.33186   0.77387   1.000
    O6617   O    0.29616   0.31535   0.77459   1.000
    O6618   O    0.61594   0.27834   0.77387   1.000
    O6619   O    0.61389   0.29616   0.77459   1.000
    O6620   O    0.27833   0.61595   0.77387   1.000
    O6621   O    0.29616   0.61390   0.77459   1.000
    O6622   O    0.33185   0.27834   0.77387   1.000
    O6623   O    0.31536   0.29616   0.77459   1.000
    O6624   O    0.31992   0.36423   0.78807   1.000
    O6625   O    0.36423   0.31992   0.78807   1.000
    O6626   O    0.52780   0.36423   0.78807   1.000
    O6627   O    0.52780   0.31992   0.78807   1.000
    O6628   O    0.36423   0.52780   0.78807   1.000
    O6629   O    0.31992   0.52780   0.78807   1.000
    O6630   O    0.83516   0.70688   0.78143   1.000
    O6631   O    0.67654   0.70688   0.78143   1.000
    O6632   O    0.83516   0.67654   0.78143   1.000
    O6633   O    0.67655   0.83516   0.78143   1.000
    O6634   O    0.70688   0.83516   0.78143   1.000
    O6635   O    0.70688   0.67654   0.78143   1.000
    O6636   O    0.87849   0.41082   0.77668   1.000
    O6637   O    0.85570   0.41917   0.78672   1.000
    O6638   O    0.41082   0.87849   0.77668   1.000
    O6639   O    0.41917   0.85570   0.78672   1.000
    O6640   O    0.41082   0.93402   0.77668   1.000
    O6641   O    0.41916   0.93842   0.78672   1.000
    O6642   O    0.87849   0.93402   0.77668   1.000
    O6643   O    0.85570   0.93842   0.78672   1.000
    O6644   O    0.93402   0.87849   0.77668   1.000
    O6645   O    0.93842   0.85570   0.78672   1.000
    O6646   O    0.93402   0.41082   0.77668   1.000
    O6647   O    0.93842   0.41917   0.78672   1.000
    O6648   O    0.31285   0.59215   0.78215   1.000
    O6649   O    0.31285   0.31285   0.78215   1.000
    O6650   O    0.59215   0.31285   0.78215   1.000
    O6651   O    0.62563   0.82780   0.78356   1.000
    O6652   O    0.59940   0.83660   0.79232   1.000
    O6653   O    0.76301   0.82780   0.78356   1.000
    O6654   O    0.78701   0.81353   0.78701   1.000
    O6655   O    0.77169   0.83660   0.79232   1.000
    O6656   O    0.76300   0.62563   0.78356   1.000
    O6657   O    0.78700   0.61246   0.78701   1.000
    O6658   O    0.77169   0.59940   0.79232   1.000
    O6659   O    0.62563   0.76300   0.78356   1.000
    O6660   O    0.61245   0.78701   0.78701   1.000
    O6661   O    0.59940   0.77169   0.79232   1.000
    O6662   O    0.82781   0.76300   0.78356   1.000
    O6663   O    0.83660   0.77169   0.79232   1.000
    O6664   O    0.82780   0.62563   0.78356   1.000
    O6665   O    0.81353   0.61246   0.78701   1.000
    O6666   O    0.83660   0.59940   0.79232   1.000
    O6667   O    0.94772   0.44598   0.78783   1.000
    O6668   O    0.44598   0.81848   0.78783   1.000
    O6669   O    0.81848   0.94772   0.78783   1.000
    O6670   O    0.94772   0.81848   0.78783   1.000
    O6671   O    0.44598   0.94772   0.78783   1.000
    O6672   O    0.81848   0.44598   0.78783   1.000
    O6673   O    0.57153   0.32844   0.78933   1.000
    O6674   O    0.57153   0.31070   0.78933   1.000
    O6675   O    0.32844   0.57153   0.78933   1.000
    O6676   O    0.31070   0.57153   0.78933   1.000
    O6677   O    0.32844   0.31070   0.78933   1.000
    O6678   O    0.31070   0.32844   0.78933   1.000
    O6679   O    0.81581   0.64333   0.79809   1.000
    O6680   O    0.64332   0.81581   0.79809   1.000
    O6681   O    0.81580   0.74279   0.79809   1.000
    O6682   O    0.64332   0.74279   0.79809   1.000
    O6683   O    0.74279   0.81581   0.79809   1.000
    O6684   O    0.74278   0.64333   0.79809   1.000
    O6685   O    0.69167   0.82760   0.78908   1.000
    O6686   O    0.70861   0.81786   0.79860   1.000
    O6687   O    0.67494   0.81786   0.79860   1.000
    O6688   O    0.82760   0.69166   0.78908   1.000
    O6689   O    0.81786   0.67494   0.79860   1.000
    O6690   O    0.69167   0.69166   0.78908   1.000
    O6691   O    0.67494   0.70861   0.79860   1.000
    O6692   O    0.81786   0.70861   0.79860   1.000
    O6693   O    0.70861   0.67494   0.79860   1.000
    O6694   O    0.54795   0.34945   0.79744   1.000
    O6695   O    0.34945   0.54795   0.79744   1.000
    O6696   O    0.54795   0.30518   0.79744   1.000
    O6697   O    0.30517   0.54795   0.79744   1.000
    O6698   O    0.34945   0.30518   0.79744   1.000
    O6699   O    0.30518   0.34945   0.79744   1.000
    O6700   O    0.74100   0.20553   0.79283   1.000
    O6701   O    0.72493   0.19493   0.80451   1.000
    O6702   O    0.26063   0.20553   0.79283   1.000
    O6703   O    0.27563   0.19493   0.80451   1.000
    O6704   O    0.20553   0.74100   0.79283   1.000
    O6705   O    0.19493   0.72493   0.80451   1.000
    O6706   O    0.20553   0.26063   0.79283   1.000
    O6707   O    0.19492   0.27563   0.80451   1.000
    O6708   O    0.26063   0.74100   0.79283   1.000
    O6709   O    0.27563   0.72493   0.80451   1.000
    O6710   O    0.74100   0.26063   0.79283   1.000
    O6711   O    0.72494   0.27563   0.80451   1.000
    O6712   O    0.61246   0.78701   0.81353   1.000
    O6713   O    0.78701   0.78701   0.81353   1.000
    O6714   O    0.30229   0.43152   0.80402   1.000
    O6715   O    0.43152   0.30228   0.80402   1.000
    O6716   O    0.43152   0.46217   0.80402   1.000
    O6717   O    0.46218   0.30228   0.80402   1.000
    O6718   O    0.46218   0.43152   0.80402   1.000
    O6719   O    0.30228   0.46217   0.80402   1.000
    O6720   O    0.83146   0.42863   0.79765   1.000
    O6721   O    0.80814   0.43830   0.80814   1.000
    O6722   O    0.83145   0.94227   0.79765   1.000
    O6723   O    0.80814   0.94542   0.80814   1.000
    O6724   O    0.94226   0.83145   0.79765   1.000
    O6725   O    0.94542   0.80814   0.80814   1.000
    O6726   O    0.94226   0.42863   0.79765   1.000
    O6727   O    0.94542   0.43830   0.80814   1.000
    O6728   O    0.42863   0.94227   0.79765   1.000
    O6729   O    0.43830   0.94542   0.80814   1.000
    O6730   O    0.42863   0.83145   0.79765   1.000
    O6731   O    0.43830   0.80814   0.80814   1.000
    O6732   O    0.40921   0.84419   0.81044   1.000
    O6733   O    0.84419   0.40921   0.81044   1.000
    O6734   O    0.93616   0.40921   0.81044   1.000
    O6735   O    0.40921   0.93616   0.81044   1.000
    O6736   O    0.93616   0.84419   0.81044   1.000
    O6737   O    0.84419   0.93616   0.81044   1.000
    O6738   O    0.69576   0.18592   0.80748   1.000
    O6739   O    0.31085   0.69575   0.80748   1.000
    O6740   O    0.69576   0.31085   0.80748   1.000
    O6741   O    0.18591   0.69575   0.80748   1.000
    O6742   O    0.18592   0.31085   0.80748   1.000
    O6743   O    0.31086   0.18592   0.80748   1.000
    O6744   O    0.51353   0.37166   0.80834   1.000
    O6745   O    0.52411   0.34513   0.81217   1.000
    O6746   O    0.53346   0.35648   0.81806   1.000
    O6747   O    0.30647   0.37166   0.80834   1.000
    O6748   O    0.31859   0.34513   0.81217   1.000
    O6749   O    0.29201   0.35648   0.81806   1.000
    O6750   O    0.51353   0.30647   0.80834   1.000
    O6751   O    0.52410   0.31860   0.81217   1.000
    O6752   O    0.53346   0.29201   0.81806   1.000
    O6753   O    0.37167   0.51353   0.80834   1.000
    O6754   O    0.34513   0.52410   0.81217   1.000
    O6755   O    0.35647   0.53346   0.81806   1.000
    O6756   O    0.30646   0.51353   0.80834   1.000
    O6757   O    0.31859   0.52410   0.81217   1.000
    O6758   O    0.29201   0.53346   0.81806   1.000
    O6759   O    0.37167   0.30647   0.80834   1.000
    O6760   O    0.34513   0.31860   0.81217   1.000
    O6761   O    0.35647   0.29201   0.81806   1.000
    O6762   O    0.58187   0.76307   0.81865   1.000
    O6763   O    0.76307   0.83641   0.81865   1.000
    O6764   O    0.83641   0.76307   0.81865   1.000
    O6765   O    0.83641   0.58187   0.81865   1.000
    O6766   O    0.58186   0.83641   0.81865   1.000
    O6767   O    0.76307   0.58187   0.81865   1.000
    O6768   O    0.80766   0.65860   0.80766   1.000
    O6769   O    0.79808   0.64332   0.81581   1.000
    O6770   O    0.72608   0.65860   0.80766   1.000
    O6771   O    0.74279   0.64332   0.81581   1.000
    O6772   O    0.80766   0.72608   0.80766   1.000
    O6773   O    0.79808   0.74279   0.81581   1.000
    O6774   O    0.65860   0.80766   0.80766   1.000
    O6775   O    0.64332   0.79809   0.81581   1.000
    O6776   O    0.65860   0.72608   0.80766   1.000
    O6777   O    0.64332   0.74279   0.81581   1.000
    O6778   O    0.72608   0.80766   0.80766   1.000
    O6779   O    0.74279   0.79809   0.81581   1.000
    O6780   O    0.79860   0.67494   0.81786   1.000
    O6781   O    0.70861   0.67494   0.81786   1.000
    O6782   O    0.67494   0.70861   0.81786   1.000
    O6783   O    0.70861   0.79860   0.81786   1.000
    O6784   O    0.67493   0.79860   0.81786   1.000
    O6785   O    0.79860   0.70861   0.81786   1.000
    O6786   O    0.44186   0.44186   0.81170   1.000
    O6787   O    0.41854   0.45236   0.82137   1.000
    O6788   O    0.44186   0.30458   0.81170   1.000
    O6789   O    0.41854   0.30774   0.82137   1.000
    O6790   O    0.45236   0.41855   0.82137   1.000
    O6791   O    0.30458   0.44186   0.81170   1.000
    O6792   O    0.30774   0.45236   0.82137   1.000
    O6793   O    0.45235   0.30774   0.82137   1.000
    O6794   O    0.30774   0.41855   0.82137   1.000
    O6795   O    0.48581   0.38295   0.82192   1.000
    O6796   O    0.38295   0.48581   0.82192   1.000
    O6797   O    0.38295   0.30932   0.82192   1.000
    O6798   O    0.30932   0.38295   0.82192   1.000
    O6799   O    0.48581   0.30932   0.82192   1.000
    O6800   O    0.30932   0.48581   0.82192   1.000
    O6801   O    0.54856   0.87874   0.82508   1.000
    O6802   O    0.54856   0.74762   0.82508   1.000
    O6803   O    0.87874   0.74762   0.82508   1.000
    O6804   O    0.74762   0.87874   0.82508   1.000
    O6805   O    0.74762   0.54856   0.82508   1.000
    O6806   O    0.87874   0.54856   0.82508   1.000
    O6807   O    0.70741   0.18449   0.81660   1.000
    O6808   O    0.68973   0.17536   0.82795   1.000
    O6809   O    0.29150   0.18449   0.81660   1.000
    O6810   O    0.30695   0.17536   0.82795   1.000
    O6811   O    0.70741   0.29151   0.81660   1.000
    O6812   O    0.68973   0.30695   0.82795   1.000
    O6813   O    0.18449   0.70742   0.81660   1.000
    O6814   O    0.17536   0.68973   0.82795   1.000
    O6815   O    0.29150   0.70742   0.81660   1.000
    O6816   O    0.30695   0.68973   0.82795   1.000
    O6817   O    0.18449   0.29151   0.81660   1.000
    O6818   O    0.17536   0.30695   0.82795   1.000
    O6819   O    0.27040   0.18178   0.82879   1.000
    O6820   O    0.71904   0.18178   0.82879   1.000
    O6821   O    0.18178   0.27039   0.82879   1.000
    O6822   O    0.71905   0.27039   0.82879   1.000
    O6823   O    0.18178   0.71905   0.82879   1.000
    O6824   O    0.27040   0.71905   0.82879   1.000
    O6825   O    0.94771   0.78782   0.81848   1.000
    O6826   O    0.44598   0.94771   0.81848   1.000
    O6827   O    0.94771   0.44598   0.81848   1.000
    O6828   O    0.78782   0.94771   0.81848   1.000
    O6829   O    0.78782   0.44598   0.81848   1.000
    O6830   O    0.44598   0.78782   0.81848   1.000
    O6831   O    0.42863   0.79764   0.83146   1.000
    O6832   O    0.42863   0.94227   0.83146   1.000
    O6833   O    0.79765   0.42863   0.83146   1.000
    O6834   O    0.94226   0.79764   0.83146   1.000
    O6835   O    0.79765   0.94227   0.83146   1.000
    O6836   O    0.94227   0.42863   0.83146   1.000
    O6837   O    0.85392   0.93073   0.82350   1.000
    O6838   O    0.83366   0.93321   0.83367   1.000
    O6839   O    0.39184   0.93073   0.82350   1.000
    O6840   O    0.39946   0.93321   0.83367   1.000
    O6841   O    0.93073   0.85392   0.82350   1.000
    O6842   O    0.93321   0.83366   0.83367   1.000
    O6843   O    0.85392   0.39184   0.82350   1.000
    O6844   O    0.83366   0.39946   0.83367   1.000
    O6845   O    0.39185   0.85392   0.82350   1.000
    O6846   O    0.39946   0.83366   0.83367   1.000
    O6847   O    0.93073   0.39184   0.82350   1.000
    O6848   O    0.93321   0.39946   0.83367   1.000
    O6849   O    0.78356   0.62563   0.82781   1.000
    O6850   O    0.62563   0.78356   0.82781   1.000
    O6851   O    0.78356   0.76301   0.82781   1.000
    O6852   O    0.76300   0.62563   0.82781   1.000
    O6853   O    0.62563   0.76301   0.82781   1.000
    O6854   O    0.76301   0.78356   0.82781   1.000
    O6855   O    0.78908   0.69166   0.82760   1.000
    O6856   O    0.78143   0.67654   0.83516   1.000
    O6857   O    0.78143   0.70688   0.83516   1.000
    O6858   O    0.69166   0.78908   0.82760   1.000
    O6859   O    0.67655   0.78143   0.83516   1.000
    O6860   O    0.70687   0.78143   0.83516   1.000
    O6861   O    0.69167   0.69166   0.82760   1.000
    O6862   O    0.67654   0.70688   0.83516   1.000
    O6863   O    0.70688   0.67654   0.83516   1.000
    O6864   O    0.46328   0.31158   0.83084   1.000
    O6865   O    0.47332   0.31598   0.83918   1.000
    O6866   O    0.31158   0.39431   0.83084   1.000
    O6867   O    0.31598   0.37151   0.83918   1.000
    O6868   O    0.46328   0.39431   0.83084   1.000
    O6869   O    0.47333   0.37151   0.83918   1.000
    O6870   O    0.31158   0.46328   0.83084   1.000
    O6871   O    0.31598   0.47332   0.83918   1.000
    O6872   O    0.39430   0.31158   0.83084   1.000
    O6873   O    0.37151   0.31598   0.83918   1.000
    O6874   O    0.39430   0.46328   0.83084   1.000
    O6875   O    0.37151   0.47332   0.83918   1.000
    O6876   O    0.76307   0.58186   0.83641   1.000
    O6877   O    0.75577   0.56644   0.83890   1.000
    O6878   O    0.81865   0.58186   0.83641   1.000
    O6879   O    0.83890   0.56644   0.83890   1.000
    O6880   O    0.81865   0.76307   0.83641   1.000
    O6881   O    0.83890   0.75577   0.83890   1.000
    O6882   O    0.58187   0.76307   0.83641   1.000
    O6883   O    0.56644   0.75577   0.83890   1.000
    O6884   O    0.58187   0.81865   0.83641   1.000
    O6885   O    0.56644   0.83890   0.83890   1.000
    O6886   O    0.76307   0.81865   0.83641   1.000
    O6887   O    0.75577   0.83890   0.83890   1.000
    O6888   O    0.40581   0.31384   0.84079   1.000
    O6889   O    0.31384   0.43957   0.84079   1.000
    O6890   O    0.43957   0.40581   0.84079   1.000
    O6891   O    0.40581   0.43957   0.84079   1.000
    O6892   O    0.43956   0.31384   0.84079   1.000
    O6893   O    0.31384   0.40581   0.84079   1.000
    O6894   O    0.77169   0.59940   0.83660   1.000
    O6895   O    0.79231   0.59940   0.83660   1.000
    O6896   O    0.77169   0.79231   0.83660   1.000
    O6897   O    0.79231   0.77169   0.83660   1.000
    O6898   O    0.59940   0.79231   0.83660   1.000
    O6899   O    0.59940   0.77169   0.83660   1.000
    O6900   O    0.34749   0.27525   0.84482   1.000
    O6901   O    0.27525   0.53243   0.84482   1.000
    O6902   O    0.27525   0.34749   0.84482   1.000
    O6903   O    0.53243   0.34749   0.84482   1.000
    O6904   O    0.34749   0.53243   0.84482   1.000
    O6905   O    0.53243   0.27525   0.84482   1.000
    O6906   O    0.55003   0.74829   0.84121   1.000
    O6907   O    0.53383   0.74175   0.84295   1.000
    O6908   O    0.86047   0.55003   0.84121   1.000
    O6909   O    0.88148   0.53382   0.84295   1.000
    O6910   O    0.86047   0.74829   0.84121   1.000
    O6911   O    0.88148   0.74175   0.84295   1.000
    O6912   O    0.74829   0.86047   0.84121   1.000
    O6913   O    0.74175   0.88148   0.84295   1.000
    O6914   O    0.55003   0.86047   0.84121   1.000
    O6915   O    0.53383   0.88148   0.84295   1.000
    O6916   O    0.74830   0.55003   0.84121   1.000
    O6917   O    0.74175   0.53382   0.84295   1.000
    O6918   O    0.67444   0.31966   0.83881   1.000
    O6919   O    0.31966   0.67444   0.83881   1.000
    O6920   O    0.31966   0.16709   0.83881   1.000
    O6921   O    0.67444   0.16709   0.83881   1.000
    O6922   O    0.16709   0.31966   0.83881   1.000
    O6923   O    0.16709   0.67444   0.83881   1.000
    O6924   O    0.16360   0.68360   0.85152   1.000
    O6925   O    0.68360   0.16360   0.85152   1.000
    O6926   O    0.30128   0.16360   0.85152   1.000
    O6927   O    0.68360   0.30128   0.85152   1.000
    O6928   O    0.16360   0.30128   0.85152   1.000
    O6929   O    0.30128   0.68360   0.85152   1.000
    O6930   O    0.51894   0.73611   0.84564   1.000
    O6931   O    0.89931   0.73611   0.84564   1.000
    O6932   O    0.89931   0.51894   0.84564   1.000
    O6933   O    0.73610   0.51894   0.84564   1.000
    O6934   O    0.51894   0.89930   0.84564   1.000
    O6935   O    0.73610   0.89930   0.84564   1.000
    O6936   O    0.25197   0.72820   0.84144   1.000
    O6937   O    0.26475   0.71300   0.85237   1.000
    O6938   O    0.72820   0.25196   0.84144   1.000
    O6939   O    0.71299   0.26475   0.85237   1.000
    O6940   O    0.17840   0.25196   0.84144   1.000
    O6941   O    0.16989   0.26475   0.85237   1.000
    O6942   O    0.17839   0.72820   0.84144   1.000
    O6943   O    0.16989   0.71300   0.85237   1.000
    O6944   O    0.25196   0.17839   0.84144   1.000
    O6945   O    0.26476   0.16989   0.85237   1.000
    O6946   O    0.72820   0.17839   0.84144   1.000
    O6947   O    0.71300   0.16989   0.85237   1.000
    O6948   O    0.93616   0.40921   0.84419   1.000
    O6949   O    0.93842   0.41916   0.85570   1.000
    O6950   O    0.40921   0.81043   0.84419   1.000
    O6951   O    0.41916   0.78672   0.85570   1.000
    O6952   O    0.93616   0.81043   0.84419   1.000
    O6953   O    0.93842   0.78672   0.85570   1.000
    O6954   O    0.81043   0.40921   0.84419   1.000
    O6955   O    0.78672   0.41916   0.85570   1.000
    O6956   O    0.81043   0.93616   0.84419   1.000
    O6957   O    0.78672   0.93842   0.85570   1.000
    O6958   O    0.40921   0.93616   0.84419   1.000
    O6959   O    0.41916   0.93842   0.85570   1.000
    O6960   O    0.55743   0.22783   0.85347   1.000
    O6961   O    0.22783   0.55743   0.85347   1.000
    O6962   O    0.55743   0.36126   0.85347   1.000
    O6963   O    0.36126   0.22783   0.85347   1.000
    O6964   O    0.22783   0.36126   0.85347   1.000
    O6965   O    0.36126   0.55743   0.85347   1.000
    O6966   O    0.39184   0.93073   0.85392   1.000
    O6967   O    0.82350   0.93073   0.85392   1.000
    O6968   O    0.93073   0.39184   0.85392   1.000
    O6969   O    0.39184   0.82350   0.85392   1.000
    O6970   O    0.93073   0.82350   0.85392   1.000
    O6971   O    0.82350   0.39184   0.85392   1.000
    O6972   O    0.84121   0.74829   0.86047   1.000
    O6973   O    0.84121   0.55003   0.86047   1.000
    O6974   O    0.74829   0.84121   0.86047   1.000
    O6975   O    0.55003   0.84121   0.86047   1.000
    O6976   O    0.74829   0.55003   0.86047   1.000
    O6977   O    0.55003   0.74829   0.86047   1.000
    O6978   O    0.34328   0.32272   0.85170   1.000
    O6979   O    0.32271   0.34328   0.85170   1.000
    O6980   O    0.48231   0.34328   0.85170   1.000
    O6981   O    0.34328   0.48230   0.85170   1.000
    O6982   O    0.32271   0.48230   0.85170   1.000
    O6983   O    0.48230   0.32272   0.85170   1.000
    O6984   O    0.51741   0.88316   0.86390   1.000
    O6985   O    0.51741   0.73554   0.86390   1.000
    O6986   O    0.88316   0.73554   0.86390   1.000
    O6987   O    0.73554   0.51741   0.86390   1.000
    O6988   O    0.88316   0.51741   0.86390   1.000
    O6989   O    0.73554   0.88316   0.86390   1.000
    O6990   O    0.31679   0.41634   0.85054   1.000
    O6991   O    0.31926   0.42650   0.85816   1.000
    O6992   O    0.41634   0.41634   0.85054   1.000
    O6993   O    0.42650   0.39608   0.85816   1.000
    O6994   O    0.31926   0.39608   0.85816   1.000
    O6995   O    0.41634   0.31679   0.85054   1.000
    O6996   O    0.39608   0.31927   0.85816   1.000
    O6997   O    0.39608   0.42650   0.85816   1.000
    O6998   O    0.42650   0.31927   0.85816   1.000
    O6999   O    0.32843   0.30795   0.86164   1.000
    O7000   O    0.30795   0.32843   0.86164   1.000
    O7001   O    0.50198   0.30795   0.86164   1.000
    O7002   O    0.50198   0.32843   0.86164   1.000
    O7003   O    0.32843   0.50198   0.86164   1.000
    O7004   O    0.30795   0.50198   0.86164   1.000
    O7005   O    0.33639   0.51970   0.86231   1.000
    O7006   O    0.34069   0.53408   0.86535   1.000
    O7007   O    0.33639   0.28160   0.86231   1.000
    O7008   O    0.34069   0.25988   0.86535   1.000
    O7009   O    0.51970   0.33639   0.86231   1.000
    O7010   O    0.53408   0.34069   0.86535   1.000
    O7011   O    0.51970   0.28160   0.86231   1.000
    O7012   O    0.53408   0.25988   0.86535   1.000
    O7013   O    0.28160   0.33639   0.86231   1.000
    O7014   O    0.25988   0.34069   0.86535   1.000
    O7015   O    0.28160   0.51970   0.86231   1.000
    O7016   O    0.25988   0.53408   0.86535   1.000
    O7017   O    0.23655   0.54790   0.86850   1.000
    O7018   O    0.21426   0.56237   0.87063   1.000
    O7019   O    0.34705   0.23655   0.86850   1.000
    O7020   O    0.35274   0.21425   0.87063   1.000
    O7021   O    0.23655   0.34705   0.86850   1.000
    O7022   O    0.21426   0.35274   0.87063   1.000
    O7023   O    0.54789   0.34705   0.86850   1.000
    O7024   O    0.56237   0.35274   0.87063   1.000
    O7025   O    0.34705   0.54790   0.86850   1.000
    O7026   O    0.35275   0.56237   0.87063   1.000
    O7027   O    0.54789   0.23655   0.86850   1.000
    O7028   O    0.56237   0.21425   0.87063   1.000
    O7029   O    0.16083   0.69523   0.86375   1.000
    O7030   O    0.15137   0.67681   0.87582   1.000
    O7031   O    0.28019   0.69523   0.86375   1.000
    O7032   O    0.29601   0.67681   0.87582   1.000
    O7033   O    0.69523   0.28019   0.86375   1.000
    O7034   O    0.67680   0.29600   0.87582   1.000
    O7035   O    0.16083   0.28019   0.86375   1.000
    O7036   O    0.15137   0.29600   0.87582   1.000
    O7037   O    0.69523   0.16083   0.86375   1.000
    O7038   O    0.67680   0.15137   0.87582   1.000
    O7039   O    0.28019   0.16083   0.86375   1.000
    O7040   O    0.29600   0.15137   0.87582   1.000
    O7041   O    0.15938   0.26086   0.87294   1.000
    O7042   O    0.26087   0.15938   0.87294   1.000
    O7043   O    0.26086   0.70683   0.87294   1.000
    O7044   O    0.70683   0.26086   0.87294   1.000
    O7045   O    0.15938   0.70683   0.87294   1.000
    O7046   O    0.70683   0.15938   0.87294   1.000
    O7047   O    0.76419   0.42808   0.86705   1.000
    O7048   O    0.73647   0.44166   0.87833   1.000
    O7049   O    0.42808   0.76419   0.86705   1.000
    O7050   O    0.44166   0.73647   0.87833   1.000
    O7051   O    0.76419   0.94068   0.86705   1.000
    O7052   O    0.73647   0.94353   0.87833   1.000
    O7053   O    0.94068   0.42808   0.86705   1.000
    O7054   O    0.94354   0.44166   0.87833   1.000
    O7055   O    0.94068   0.76419   0.86705   1.000
    O7056   O    0.94354   0.73647   0.87833   1.000
    O7057   O    0.42809   0.94068   0.86705   1.000
    O7058   O    0.44166   0.94353   0.87833   1.000
    O7059   O    0.93402   0.41082   0.87849   1.000
    O7060   O    0.77667   0.93402   0.87849   1.000
    O7061   O    0.93402   0.77667   0.87849   1.000
    O7062   O    0.41082   0.77667   0.87849   1.000
    O7063   O    0.77668   0.41082   0.87849   1.000
    O7064   O    0.41082   0.93402   0.87849   1.000
    O7065   O    0.57506   0.19462   0.87346   1.000
    O7066   O    0.35686   0.57506   0.87346   1.000
    O7067   O    0.57506   0.35686   0.87346   1.000
    O7068   O    0.19462   0.35686   0.87346   1.000
    O7069   O    0.19462   0.57506   0.87346   1.000
    O7070   O    0.35686   0.19462   0.87346   1.000
    O7071   O    0.53809   0.24433   0.88660   1.000
    O7072   O    0.33098   0.53809   0.88660   1.000
    O7073   O    0.24433   0.53809   0.88660   1.000
    O7074   O    0.24433   0.33098   0.88660   1.000
    O7075   O    0.33098   0.24433   0.88660   1.000
    O7076   O    0.53809   0.33098   0.88660   1.000
    O7077   O    0.54856   0.74762   0.87874   1.000
    O7078   O    0.53383   0.74175   0.88148   1.000
    O7079   O    0.82508   0.54856   0.87874   1.000
    O7080   O    0.84295   0.53382   0.88148   1.000
    O7081   O    0.74762   0.82508   0.87874   1.000
    O7082   O    0.74175   0.84295   0.88148   1.000
    O7083   O    0.54856   0.82508   0.87874   1.000
    O7084   O    0.53382   0.84295   0.88148   1.000
    O7085   O    0.82508   0.74762   0.87874   1.000
    O7086   O    0.84295   0.74175   0.88148   1.000
    O7087   O    0.74762   0.54856   0.87874   1.000
    O7088   O    0.74175   0.53382   0.88148   1.000
    O7089   O    0.73553   0.51741   0.88316   1.000
    O7090   O    0.73028   0.49961   0.88506   1.000
    O7091   O    0.51741   0.73553   0.88316   1.000
    O7092   O    0.49961   0.73028   0.88506   1.000
    O7093   O    0.86389   0.73553   0.88316   1.000
    O7094   O    0.88505   0.73028   0.88506   1.000
    O7095   O    0.86390   0.51741   0.88316   1.000
    O7096   O    0.88506   0.49961   0.88506   1.000
    O7097   O    0.51741   0.86389   0.88316   1.000
    O7098   O    0.49961   0.88506   0.88506   1.000
    O7099   O    0.73553   0.86389   0.88316   1.000
    O7100   O    0.73028   0.88506   0.88506   1.000
    O7101   O    0.19980   0.34205   0.89067   1.000
    O7102   O    0.34205   0.56748   0.89067   1.000
    O7103   O    0.56748   0.19980   0.89067   1.000
    O7104   O    0.56748   0.34205   0.89067   1.000
    O7105   O    0.19980   0.56748   0.89067   1.000
    O7106   O    0.34205   0.19980   0.89067   1.000
    O7107   O    0.46194   0.93008   0.88577   1.000
    O7108   O    0.48240   0.90475   0.88697   1.000
    O7109   O    0.72220   0.46194   0.88577   1.000
    O7110   O    0.72589   0.48240   0.88697   1.000
    O7111   O    0.46193   0.72221   0.88577   1.000
    O7112   O    0.48239   0.72589   0.88697   1.000
    O7113   O    0.72220   0.93008   0.88577   1.000
    O7114   O    0.72589   0.90475   0.88697   1.000
    O7115   O    0.93008   0.72221   0.88577   1.000
    O7116   O    0.90475   0.72589   0.88697   1.000
    O7117   O    0.93008   0.46194   0.88577   1.000
    O7118   O    0.90475   0.48240   0.88697   1.000
    O7119   O    0.02217   0.39653   0.88874   1.000
    O7120   O    0.69256   0.39653   0.88874   1.000
    O7121   O    0.39653   0.02217   0.88874   1.000
    O7122   O    0.39653   0.69257   0.88874   1.000
    O7123   O    0.69257   0.02217   0.88874   1.000
    O7124   O    0.02217   0.69257   0.88874   1.000
    O7125   O    0.14304   0.31055   0.88726   1.000
    O7126   O    0.13352   0.33107   0.89791   1.000
    O7127   O    0.31055   0.14305   0.88726   1.000
    O7128   O    0.33107   0.13352   0.89791   1.000
    O7129   O    0.65916   0.14305   0.88726   1.000
    O7130   O    0.63750   0.13352   0.89791   1.000
    O7131   O    0.14305   0.65915   0.88726   1.000
    O7132   O    0.13353   0.63750   0.89791   1.000
    O7133   O    0.65915   0.31055   0.88726   1.000
    O7134   O    0.63750   0.33107   0.89791   1.000
    O7135   O    0.31055   0.65915   0.88726   1.000
    O7136   O    0.33107   0.63750   0.89791   1.000
    O7137   O    0.67494   0.05538   0.89315   1.000
    O7138   O    0.37654   0.67494   0.89315   1.000
    O7139   O    0.37654   0.05538   0.89315   1.000
    O7140   O    0.05538   0.37654   0.89315   1.000
    O7141   O    0.05538   0.67494   0.89315   1.000
    O7142   O    0.67494   0.37654   0.89315   1.000
    O7143   O    0.13900   0.67054   0.89871   1.000
    O7144   O    0.67054   0.29175   0.89871   1.000
    O7145   O    0.67054   0.13900   0.89871   1.000
    O7146   O    0.13900   0.29175   0.89871   1.000
    O7147   O    0.29175   0.13900   0.89871   1.000
    O7148   O    0.29175   0.67054   0.89871   1.000
    O7149   O    0.73610   0.84564   0.89931   1.000
    O7150   O    0.73610   0.51894   0.89931   1.000
    O7151   O    0.51894   0.84564   0.89931   1.000
    O7152   O    0.84564   0.51894   0.89931   1.000
    O7153   O    0.51894   0.73611   0.89931   1.000
    O7154   O    0.84564   0.73611   0.89931   1.000
    O7155   O    0.76770   0.92729   0.90672   1.000
    O7156   O    0.39830   0.92729   0.90672   1.000
    O7157   O    0.92728   0.76770   0.90672   1.000
    O7158   O    0.76770   0.39831   0.90672   1.000
    O7159   O    0.39831   0.76770   0.90672   1.000
    O7160   O    0.92729   0.39831   0.90672   1.000
    O7161   O    0.95799   0.71654   0.89353   1.000
    O7162   O    0.94482   0.70205   0.90056   1.000
    O7163   O    0.93141   0.72589   0.90487   1.000
    O7164   O    0.71654   0.95799   0.89353   1.000
    O7165   O    0.70205   0.94482   0.90056   1.000
    O7166   O    0.72589   0.93141   0.90487   1.000
    O7167   O    0.43194   0.71654   0.89353   1.000
    O7168   O    0.45256   0.70205   0.90056   1.000
    O7169   O    0.43783   0.72589   0.90487   1.000
    O7170   O    0.43194   0.95799   0.89353   1.000
    O7171   O    0.45256   0.94482   0.90056   1.000
    O7172   O    0.43783   0.93141   0.90487   1.000
    O7173   O    0.71655   0.43194   0.89353   1.000
    O7174   O    0.70205   0.45256   0.90056   1.000
    O7175   O    0.72589   0.43783   0.90487   1.000
    O7176   O    0.95799   0.43194   0.89353   1.000
    O7177   O    0.94482   0.45256   0.90056   1.000
    O7178   O    0.93141   0.43783   0.90487   1.000
    O7179   O    0.48240   0.72589   0.90475   1.000
    O7180   O    0.88697   0.72589   0.90475   1.000
    O7181   O    0.72588   0.48240   0.90475   1.000
    O7182   O    0.88697   0.48240   0.90475   1.000
    O7183   O    0.48239   0.88697   0.90475   1.000
    O7184   O    0.72589   0.88697   0.90475   1.000
    O7185   O    0.68763   0.37938   0.89726   1.000
    O7186   O    0.70210   0.38150   0.90295   1.000
    O7187   O    0.68763   0.03574   0.89726   1.000
    O7188   O    0.70210   0.01345   0.90295   1.000
    O7189   O    0.37938   0.03574   0.89726   1.000
    O7190   O    0.38150   0.01345   0.90295   1.000
    O7191   O    0.03575   0.68763   0.89726   1.000
    O7192   O    0.01345   0.70210   0.90295   1.000
    O7193   O    0.37938   0.68763   0.89726   1.000
    O7194   O    0.38150   0.70210   0.90295   1.000
    O7195   O    0.03575   0.37938   0.89726   1.000
    O7196   O    0.01345   0.38150   0.90295   1.000
    O7197   O    0.71756   0.40518   0.90251   1.000
    O7198   O    0.40518   0.97475   0.90251   1.000
    O7199   O    0.97475   0.71756   0.90251   1.000
    O7200   O    0.40518   0.71756   0.90251   1.000
    O7201   O    0.97475   0.40518   0.90251   1.000
    O7202   O    0.71756   0.97475   0.90251   1.000
    O7203   O    0.05020   0.68252   0.90795   1.000
    O7204   O    0.68252   0.05020   0.90795   1.000
    O7205   O    0.68252   0.35934   0.90795   1.000
    O7206   O    0.35934   0.68252   0.90795   1.000
    O7207   O    0.35934   0.05020   0.90795   1.000
    O7208   O    0.05020   0.35934   0.90795   1.000
    O7209   O    0.53020   0.24962   0.90376   1.000
    O7210   O    0.54285   0.22972   0.90687   1.000
    O7211   O    0.24962   0.31641   0.90376   1.000
    O7212   O    0.22972   0.32056   0.90687   1.000
    O7213   O    0.24962   0.53020   0.90376   1.000
    O7214   O    0.22972   0.54285   0.90687   1.000
    O7215   O    0.31641   0.53020   0.90376   1.000
    O7216   O    0.32057   0.54285   0.90687   1.000
    O7217   O    0.53020   0.31641   0.90376   1.000
    O7218   O    0.54285   0.32056   0.90687   1.000
    O7219   O    0.31641   0.24962   0.90376   1.000
    O7220   O    0.32057   0.22972   0.90687   1.000
    O7221   O    0.20749   0.55777   0.90881   1.000
    O7222   O    0.18475   0.57403   0.91041   1.000
    O7223   O    0.55777   0.20749   0.90881   1.000
    O7224   O    0.57404   0.18476   0.91041   1.000
    O7225   O    0.32594   0.55777   0.90881   1.000
    O7226   O    0.33081   0.57403   0.91041   1.000
    O7227   O    0.32594   0.20749   0.90881   1.000
    O7228   O    0.33080   0.18476   0.91041   1.000
    O7229   O    0.55777   0.32594   0.90881   1.000
    O7230   O    0.57404   0.33081   0.91041   1.000
    O7231   O    0.20749   0.32594   0.90881   1.000
    O7232   O    0.18475   0.33081   0.91041   1.000
    O7233   O    0.33986   0.61222   0.90675   1.000
    O7234   O    0.33385   0.59067   0.91079   1.000
    O7235   O    0.61221   0.14119   0.90675   1.000
    O7236   O    0.59068   0.16471   0.91079   1.000
    O7237   O    0.14119   0.33986   0.90675   1.000
    O7238   O    0.16470   0.33385   0.91079   1.000
    O7239   O    0.33986   0.14119   0.90675   1.000
    O7240   O    0.33385   0.16471   0.91079   1.000
    O7241   O    0.61222   0.33986   0.90675   1.000
    O7242   O    0.59068   0.33385   0.91079   1.000
    O7243   O    0.14119   0.61222   0.90675   1.000
    O7244   O    0.16470   0.59067   0.91079   1.000
    O7245   O    0.71591   0.99012   0.90931   1.000
    O7246   O    0.73030   0.96840   0.91361   1.000
    O7247   O    0.38465   0.71592   0.90931   1.000
    O7248   O    0.38769   0.73030   0.91361   1.000
    O7249   O    0.99012   0.71592   0.90931   1.000
    O7250   O    0.96840   0.73030   0.91361   1.000
    O7251   O    0.38465   0.99012   0.90931   1.000
    O7252   O    0.38769   0.96840   0.91361   1.000
    O7253   O    0.99012   0.38465   0.90931   1.000
    O7254   O    0.96840   0.38769   0.91361   1.000
    O7255   O    0.71592   0.38465   0.90931   1.000
    O7256   O    0.73030   0.38769   0.91361   1.000
    O7257   O    0.63405   0.97167   0.91815   1.000
    O7258   O    0.97167   0.63406   0.91815   1.000
    O7259   O    0.97166   0.47613   0.91815   1.000
    O7260   O    0.47614   0.97167   0.91815   1.000
    O7261   O    0.63405   0.47613   0.91815   1.000
    O7262   O    0.47613   0.63406   0.91815   1.000
    O7263   O    0.63779   0.10881   0.91014   1.000
    O7264   O    0.61250   0.11647   0.91893   1.000
    O7265   O    0.62500   0.12500   0.92464   1.000
    O7266   O    0.34326   0.10881   0.91014   1.000
    O7267   O    0.35209   0.11647   0.91893   1.000
    O7268   O    0.32536   0.12500   0.92464   1.000
    O7269   O    0.10881   0.63779   0.91014   1.000
    O7270   O    0.11647   0.61250   0.91893   1.000
    O7271   O    0.12500   0.62500   0.92464   1.000
    O7272   O    0.63779   0.34326   0.91014   1.000
    O7273   O    0.61250   0.35209   0.91893   1.000
    O7274   O    0.62500   0.32537   0.92464   1.000
    O7275   O    0.10882   0.34326   0.91014   1.000
    O7276   O    0.11647   0.35209   0.91893   1.000
    O7277   O    0.12500   0.32537   0.92464   1.000
    O7278   O    0.34326   0.63779   0.91014   1.000
    O7279   O    0.35209   0.61250   0.91893   1.000
    O7280   O    0.32537   0.62500   0.92464   1.000
    O7281   O    0.12409   0.66523   0.92680   1.000
    O7282   O    0.12409   0.28387   0.92680   1.000
    O7283   O    0.66523   0.12410   0.92680   1.000
    O7284   O    0.28387   0.66523   0.92680   1.000
    O7285   O    0.28387   0.12410   0.92680   1.000
    O7286   O    0.66524   0.28387   0.92680   1.000
    O7287   O    0.00567   0.36341   0.91902   1.000
    O7288   O    0.71190   0.36341   0.91902   1.000
    O7289   O    0.00567   0.71191   0.91902   1.000
    O7290   O    0.71190   0.00567   0.91902   1.000
    O7291   O    0.36340   0.00567   0.91902   1.000
    O7292   O    0.36340   0.71191   0.91902   1.000
    O7293   O    0.67847   0.93929   0.92156   1.000
    O7294   O    0.93930   0.46068   0.92156   1.000
    O7295   O    0.93930   0.67847   0.92156   1.000
    O7296   O    0.46067   0.67847   0.92156   1.000
    O7297   O    0.67847   0.46068   0.92156   1.000
    O7298   O    0.46067   0.93929   0.92156   1.000
    O7299   O    0.65932   0.08529   0.91616   1.000
    O7300   O    0.08529   0.65932   0.91616   1.000
    O7301   O    0.65933   0.33921   0.91616   1.000
    O7302   O    0.33921   0.65932   0.91616   1.000
    O7303   O    0.08529   0.33921   0.91616   1.000
    O7304   O    0.33921   0.08529   0.91616   1.000
    O7305   O    0.21601   0.31186   0.92400   1.000
    O7306   O    0.54814   0.21601   0.92400   1.000
    O7307   O    0.31186   0.54814   0.92400   1.000
    O7308   O    0.31186   0.21601   0.92400   1.000
    O7309   O    0.54814   0.31186   0.92400   1.000
    O7310   O    0.21601   0.54814   0.92400   1.000
    O7311   O    0.72220   0.46193   0.93009   1.000
    O7312   O    0.72221   0.88577   0.93009   1.000
    O7313   O    0.88577   0.72220   0.93009   1.000
    O7314   O    0.46194   0.88577   0.93009   1.000
    O7315   O    0.88577   0.46193   0.93009   1.000
    O7316   O    0.46194   0.72220   0.93009   1.000
    O7317   O    0.06524   0.33959   0.91920   1.000
    O7318   O    0.04251   0.34119   0.92406   1.000
    O7319   O    0.33959   0.67596   0.91920   1.000
    O7320   O    0.34119   0.69224   0.92406   1.000
    O7321   O    0.67597   0.33959   0.91920   1.000
    O7322   O    0.69224   0.34119   0.92406   1.000
    O7323   O    0.06525   0.67596   0.91920   1.000
    O7324   O    0.04251   0.69224   0.92406   1.000
    O7325   O    0.33959   0.06524   0.91920   1.000
    O7326   O    0.34119   0.04252   0.92406   1.000
    O7327   O    0.67597   0.06524   0.91920   1.000
    O7328   O    0.69223   0.04252   0.92406   1.000
    O7329   O    0.57982   0.16897   0.92944   1.000
    O7330   O    0.57983   0.32177   0.92944   1.000
    O7331   O    0.16897   0.32177   0.92944   1.000
    O7332   O    0.32177   0.16897   0.92944   1.000
    O7333   O    0.16897   0.57982   0.92944   1.000
    O7334   O    0.32177   0.57982   0.92944   1.000
    O7335   O    0.74802   0.38836   0.92157   1.000
    O7336   O    0.94205   0.38836   0.92157   1.000
    O7337   O    0.94205   0.74802   0.92157   1.000
    O7338   O    0.38836   0.74802   0.92157   1.000
    O7339   O    0.38836   0.94205   0.92157   1.000
    O7340   O    0.74802   0.94205   0.92157   1.000
    O7341   O    0.43783   0.72590   0.93141   1.000
    O7342   O    0.72590   0.43783   0.93141   1.000
    O7343   O    0.72589   0.90487   0.93141   1.000
    O7344   O    0.90487   0.43783   0.93141   1.000
    O7345   O    0.43783   0.90487   0.93141   1.000
    O7346   O    0.90487   0.72590   0.93141   1.000
    O7347   O    0.57556   0.41119   0.93034   1.000
    O7348   O    0.08291   0.41119   0.93034   1.000
    O7349   O    0.57556   0.08291   0.93034   1.000
    O7350   O    0.08291   0.57556   0.93034   1.000
    O7351   O    0.41119   0.08291   0.93034   1.000
    O7352   O    0.41119   0.57556   0.93034   1.000
    O7353   O    0.08103   0.32056   0.92823   1.000
    O7354   O    0.67018   0.32056   0.92823   1.000
    O7355   O    0.32056   0.08103   0.92823   1.000
    O7356   O    0.32056   0.67018   0.92823   1.000
    O7357   O    0.67017   0.08103   0.92823   1.000
    O7358   O    0.08103   0.67018   0.92823   1.000
    O7359   O    0.90672   0.76770   0.92729   1.000
    O7360   O    0.92157   0.74802   0.94205   1.000
    O7361   O    0.76770   0.90672   0.92729   1.000
    O7362   O    0.74802   0.92157   0.94205   1.000
    O7363   O    0.39830   0.90672   0.92729   1.000
    O7364   O    0.38836   0.92157   0.94205   1.000
    O7365   O    0.76769   0.39830   0.92729   1.000
    O7366   O    0.74802   0.38836   0.94205   1.000
    O7367   O    0.39830   0.76770   0.92729   1.000
    O7368   O    0.38836   0.74802   0.94205   1.000
    O7369   O    0.90672   0.39830   0.92729   1.000
    O7370   O    0.92157   0.38836   0.94205   1.000
    O7371   O    0.48887   0.98407   0.93044   1.000
    O7372   O    0.59662   0.48887   0.93044   1.000
    O7373   O    0.48887   0.59662   0.93044   1.000
    O7374   O    0.98408   0.48887   0.93044   1.000
    O7375   O    0.98407   0.59662   0.93044   1.000
    O7376   O    0.59662   0.98407   0.93044   1.000
    O7377   O    0.48256   0.97027   0.93187   1.000
    O7378   O    0.47541   0.95384   0.93465   1.000
    O7379   O    0.97028   0.48256   0.93187   1.000
    O7380   O    0.95384   0.47541   0.93465   1.000
    O7381   O    0.97028   0.61530   0.93187   1.000
    O7382   O    0.95384   0.63611   0.93465   1.000
    O7383   O    0.61530   0.97027   0.93187   1.000
    O7384   O    0.63610   0.95384   0.93465   1.000
    O7385   O    0.61530   0.48256   0.93187   1.000
    O7386   O    0.63611   0.47541   0.93465   1.000
    O7387   O    0.48256   0.61530   0.93187   1.000
    O7388   O    0.47541   0.63611   0.93465   1.000
    O7389   O    0.02028   0.70715   0.92944   1.000
    O7390   O    0.00038   0.71980   0.93359   1.000
    O7391   O    0.70715   0.02028   0.92944   1.000
    O7392   O    0.71980   0.00038   0.93359   1.000
    O7393   O    0.70715   0.34313   0.92944   1.000
    O7394   O    0.71980   0.34624   0.93359   1.000
    O7395   O    0.02028   0.34313   0.92944   1.000
    O7396   O    0.00038   0.34624   0.93359   1.000
    O7397   O    0.34313   0.70715   0.92944   1.000
    O7398   O    0.34624   0.71980   0.93359   1.000
    O7399   O    0.34313   0.02028   0.92944   1.000
    O7400   O    0.34624   0.00038   0.93359   1.000
    O7401   O    0.82350   0.39184   0.93074   1.000
    O7402   O    0.85392   0.39184   0.93074   1.000
    O7403   O    0.39184   0.85392   0.93074   1.000
    O7404   O    0.39185   0.82350   0.93074   1.000
    O7405   O    0.82350   0.85392   0.93074   1.000
    O7406   O    0.85392   0.82350   0.93074   1.000
    O7407   O    0.10696   0.59085   0.93945   1.000
    O7408   O    0.10695   0.36275   0.93945   1.000
    O7409   O    0.59084   0.10695   0.93945   1.000
    O7410   O    0.36274   0.10695   0.93945   1.000
    O7411   O    0.59084   0.36275   0.93945   1.000
    O7412   O    0.36275   0.59085   0.93945   1.000
    O7413   O    0.41082   0.77668   0.93402   1.000
    O7414   O    0.77667   0.87849   0.93402   1.000
    O7415   O    0.87849   0.41082   0.93402   1.000
    O7416   O    0.87849   0.77668   0.93402   1.000
    O7417   O    0.77667   0.41082   0.93402   1.000
    O7418   O    0.41082   0.87849   0.93402   1.000
    O7419   O    0.32601   0.03399   0.93814   1.000
    O7420   O    0.03399   0.70186   0.93814   1.000
    O7421   O    0.70186   0.03399   0.93814   1.000
    O7422   O    0.70186   0.32600   0.93814   1.000
    O7423   O    0.32601   0.70186   0.93814   1.000
    O7424   O    0.03399   0.32600   0.93814   1.000
    O7425   O    0.55424   0.06408   0.93915   1.000
    O7426   O    0.55425   0.44252   0.93915   1.000
    O7427   O    0.06408   0.44252   0.93915   1.000
    O7428   O    0.44252   0.06408   0.93915   1.000
    O7429   O    0.44252   0.55424   0.93915   1.000
    O7430   O    0.06408   0.55424   0.93915   1.000
    O7431   O    0.65785   0.93715   0.93716   1.000
    O7432   O    0.67847   0.92156   0.93930   1.000
    O7433   O    0.46785   0.93715   0.93716   1.000
    O7434   O    0.46068   0.92156   0.93930   1.000
    O7435   O    0.93715   0.46785   0.93716   1.000
    O7436   O    0.92156   0.46067   0.93930   1.000
    O7437   O    0.65785   0.46785   0.93716   1.000
    O7438   O    0.67847   0.46067   0.93930   1.000
    O7439   O    0.93715   0.65785   0.93716   1.000
    O7440   O    0.92156   0.67847   0.93930   1.000
    O7441   O    0.46785   0.65785   0.93716   1.000
    O7442   O    0.46068   0.67847   0.93930   1.000
    O7443   O    0.83366   0.39946   0.93321   1.000
    O7444   O    0.81044   0.40921   0.93616   1.000
    O7445   O    0.83366   0.83366   0.93321   1.000
    O7446   O    0.81043   0.84419   0.93616   1.000
    O7447   O    0.39946   0.83366   0.93321   1.000
    O7448   O    0.40921   0.81043   0.93616   1.000
    O7449   O    0.84419   0.81043   0.93616   1.000
    O7450   O    0.84419   0.40921   0.93616   1.000
    O7451   O    0.40921   0.84419   0.93616   1.000
    O7452   O    0.09917   0.29619   0.93966   1.000
    O7453   O    0.09916   0.66499   0.93966   1.000
    O7454   O    0.66499   0.29619   0.93966   1.000
    O7455   O    0.29620   0.09917   0.93966   1.000
    O7456   O    0.66498   0.09917   0.93966   1.000
    O7457   O    0.29620   0.66499   0.93966   1.000
    O7458   O    0.48963   0.59444   0.94836   1.000
    O7459   O    0.59443   0.96758   0.94836   1.000
    O7460   O    0.96757   0.59444   0.94836   1.000
    O7461   O    0.96758   0.48963   0.94836   1.000
    O7462   O    0.48963   0.96758   0.94836   1.000
    O7463   O    0.59443   0.48963   0.94836   1.000
    O7464   O    0.41916   0.78672   0.93842   1.000
    O7465   O    0.42809   0.76419   0.94068   1.000
    O7466   O    0.85570   0.78672   0.93842   1.000
    O7467   O    0.86705   0.76419   0.94068   1.000
    O7468   O    0.78672   0.41917   0.93842   1.000
    O7469   O    0.76419   0.42808   0.94068   1.000
    O7470   O    0.41916   0.85570   0.93842   1.000
    O7471   O    0.42809   0.86705   0.94068   1.000
    O7472   O    0.78672   0.85570   0.93842   1.000
    O7473   O    0.76419   0.86705   0.94068   1.000
    O7474   O    0.85570   0.41917   0.93842   1.000
    O7475   O    0.86705   0.42808   0.94068   1.000
    O7476   O    0.42863   0.83146   0.94227   1.000
    O7477   O    0.79765   0.42863   0.94227   1.000
    O7478   O    0.79765   0.83146   0.94227   1.000
    O7479   O    0.42863   0.79765   0.94227   1.000
    O7480   O    0.83145   0.79765   0.94227   1.000
    O7481   O    0.83146   0.42863   0.94227   1.000
    O7482   O    0.42205   0.56026   0.94305   1.000
    O7483   O    0.39849   0.56640   0.94872   1.000
    O7484   O    0.42205   0.07463   0.94305   1.000
    O7485   O    0.39848   0.08639   0.94872   1.000
    O7486   O    0.56026   0.42205   0.94305   1.000
    O7487   O    0.56640   0.39848   0.94872   1.000
    O7488   O    0.07464   0.56026   0.94305   1.000
    O7489   O    0.08640   0.56640   0.94872   1.000
    O7490   O    0.07464   0.42205   0.94305   1.000
    O7491   O    0.08639   0.39848   0.94872   1.000
    O7492   O    0.56027   0.07463   0.94305   1.000
    O7493   O    0.56640   0.08639   0.94872   1.000
    O7494   O    0.11961   0.64135   0.94208   1.000
    O7495   O    0.13039   0.30793   0.95304   1.000
    O7496   O    0.64135   0.11961   0.94208   1.000
    O7497   O    0.29696   0.64135   0.94208   1.000
    O7498   O    0.64135   0.29696   0.94208   1.000
    O7499   O    0.30792   0.13039   0.95304   1.000
    O7500   O    0.58502   0.15083   0.95381   1.000
    O7501   O    0.31034   0.15083   0.95381   1.000
    O7502   O    0.58501   0.31034   0.95381   1.000
    O7503   O    0.15084   0.31034   0.95381   1.000
    O7504   O    0.31034   0.58502   0.95381   1.000
    O7505   O    0.15084   0.58502   0.95381   1.000
    O7506   O    0.93464   0.63610   0.95384   1.000
    O7507   O    0.93464   0.47542   0.95384   1.000
    O7508   O    0.47542   0.93464   0.95384   1.000
    O7509   O    0.63610   0.93464   0.95384   1.000
    O7510   O    0.47541   0.63610   0.95384   1.000
    O7511   O    0.63611   0.47542   0.95384   1.000
    O7512   O    0.87833   0.44166   0.94354   1.000
    O7513   O    0.90055   0.45256   0.94483   1.000
    O7514   O    0.89353   0.43194   0.95799   1.000
    O7515   O    0.44166   0.73646   0.94354   1.000
    O7516   O    0.45256   0.70205   0.94483   1.000
    O7517   O    0.43194   0.71654   0.95799   1.000
    O7518   O    0.73646   0.44166   0.94354   1.000
    O7519   O    0.70205   0.45256   0.94483   1.000
    O7520   O    0.71654   0.43194   0.95799   1.000
    O7521   O    0.73646   0.87833   0.94354   1.000
    O7522   O    0.70205   0.90055   0.94483   1.000
    O7523   O    0.71654   0.89352   0.95799   1.000
    O7524   O    0.87834   0.73646   0.94354   1.000
    O7525   O    0.90055   0.70205   0.94483   1.000
    O7526   O    0.89352   0.71654   0.95799   1.000
    O7527   O    0.44166   0.87833   0.94354   1.000
    O7528   O    0.45256   0.90055   0.94483   1.000
    O7529   O    0.43194   0.89352   0.95799   1.000
    O7530   O    0.27005   0.65226   0.94888   1.000
    O7531   O    0.28241   0.65220   0.96185   1.000
    O7532   O    0.65226   0.27005   0.94888   1.000
    O7533   O    0.65220   0.28241   0.96185   1.000
    O7534   O    0.27005   0.12882   0.94888   1.000
    O7535   O    0.28241   0.10354   0.96185   1.000
    O7536   O    0.12882   0.65226   0.94888   1.000
    O7537   O    0.10354   0.65220   0.96185   1.000
    O7538   O    0.12882   0.27005   0.94888   1.000
    O7539   O    0.10354   0.28241   0.96185   1.000
    O7540   O    0.65225   0.12882   0.94888   1.000
    O7541   O    0.65220   0.10354   0.96185   1.000
    O7542   O    0.80814   0.43830   0.94542   1.000
    O7543   O    0.81848   0.44598   0.94772   1.000
    O7544   O    0.78782   0.44598   0.94772   1.000
    O7545   O    0.80814   0.80814   0.94542   1.000
    O7546   O    0.78782   0.81848   0.94772   1.000
    O7547   O    0.81848   0.78783   0.94772   1.000
    O7548   O    0.43830   0.80814   0.94542   1.000
    O7549   O    0.44598   0.81848   0.94772   1.000
    O7550   O    0.44598   0.78783   0.94772   1.000
    O7551   O    0.06551   0.54259   0.95850   1.000
    O7552   O    0.43341   0.06551   0.95850   1.000
    O7553   O    0.54258   0.06551   0.95850   1.000
    O7554   O    0.06551   0.43340   0.95850   1.000
    O7555   O    0.43341   0.54259   0.95850   1.000
    O7556   O    0.54258   0.43340   0.95850   1.000
    O7557   O    0.57319   0.09863   0.95400   1.000
    O7558   O    0.57946   0.11100   0.95825   1.000
    O7559   O    0.09863   0.57319   0.95400   1.000
    O7560   O    0.11100   0.57946   0.95825   1.000
    O7561   O    0.37418   0.57319   0.95400   1.000
    O7562   O    0.35130   0.57946   0.95825   1.000
    O7563   O    0.57319   0.37418   0.95400   1.000
    O7564   O    0.57946   0.35130   0.95825   1.000
    O7565   O    0.37418   0.09863   0.95400   1.000
    O7566   O    0.35130   0.11100   0.95825   1.000
    O7567   O    0.09863   0.37418   0.95400   1.000
    O7568   O    0.11100   0.35130   0.95825   1.000
    O7569   O    0.20949   0.17885   0.95395   1.000
    O7570   O    0.65770   0.17885   0.95395   1.000
    O7571   O    0.20949   0.65770   0.95395   1.000
    O7572   O    0.17885   0.20949   0.95395   1.000
    O7573   O    0.17885   0.65770   0.95395   1.000
    O7574   O    0.65771   0.20949   0.95395   1.000
    O7575   O    0.63591   0.25466   0.95805   1.000
    O7576   O    0.15138   0.25466   0.95805   1.000
    O7577   O    0.15138   0.63591   0.95805   1.000
    O7578   O    0.25466   0.15138   0.95805   1.000
    O7579   O    0.25465   0.63591   0.95805   1.000
    O7580   O    0.63591   0.15138   0.95805   1.000
    O7581   O    0.50820   0.00304   0.95879   1.000
    O7582   O    0.50223   0.98099   0.96327   1.000
    O7583   O    0.52998   0.00304   0.95879   1.000
    O7584   O    0.55351   0.98099   0.96327   1.000
    O7585   O    0.50820   0.52997   0.95879   1.000
    O7586   O    0.50222   0.55351   0.96327   1.000
    O7587   O    0.52997   0.50820   0.95879   1.000
    O7588   O    0.55351   0.50222   0.96327   1.000
    O7589   O    0.00304   0.52997   0.95879   1.000
    O7590   O    0.98100   0.55351   0.96327   1.000
    O7591   O    0.00303   0.50820   0.95879   1.000
    O7592   O    0.98100   0.50222   0.96327   1.000
    O7593   O    0.64843   0.19716   0.95726   1.000
    O7594   O    0.63669   0.21816   0.96110   1.000
    O7595   O    0.19716   0.19716   0.95726   1.000
    O7596   O    0.18406   0.21816   0.96110   1.000
    O7597   O    0.63668   0.18406   0.96110   1.000
    O7598   O    0.19715   0.64843   0.95726   1.000
    O7599   O    0.18406   0.63669   0.96110   1.000
    O7600   O    0.21816   0.63669   0.96110   1.000
    O7601   O    0.21816   0.18406   0.96110   1.000
    O7602   O    0.38625   0.55477   0.96981   1.000
    O7603   O    0.08916   0.55477   0.96981   1.000
    O7604   O    0.38626   0.08916   0.96981   1.000
    O7605   O    0.55477   0.38625   0.96981   1.000
    O7606   O    0.55477   0.08916   0.96981   1.000
    O7607   O    0.08916   0.38625   0.96981   1.000
    O7608   O    0.38769   0.73029   0.96840   1.000
    O7609   O    0.73029   0.91361   0.96840   1.000
    O7610   O    0.73029   0.38769   0.96840   1.000
    O7611   O    0.38769   0.91361   0.96840   1.000
    O7612   O    0.91361   0.38769   0.96840   1.000
    O7613   O    0.91361   0.73029   0.96840   1.000
    O7614   O    0.49626   0.57340   0.96518   1.000
    O7615   O    0.48963   0.59444   0.96758   1.000
    O7616   O    0.96517   0.49625   0.96518   1.000
    O7617   O    0.94836   0.48963   0.96758   1.000
    O7618   O    0.57339   0.49625   0.96518   1.000
    O7619   O    0.59443   0.48963   0.96758   1.000
    O7620   O    0.96517   0.57340   0.96518   1.000
    O7621   O    0.94836   0.59444   0.96758   1.000
    O7622   O    0.49625   0.96518   0.96518   1.000
    O7623   O    0.48963   0.94836   0.96758   1.000
    O7624   O    0.57339   0.96518   0.96518   1.000
    O7625   O    0.59443   0.94836   0.96758   1.000
    O7626   O    0.49550   0.02595   0.96119   1.000
    O7627   O    0.51736   0.02595   0.96119   1.000
    O7628   O    0.50701   0.00625   0.97974   1.000
    O7629   O    0.02595   0.51736   0.96119   1.000
    O7630   O    0.02595   0.49551   0.96119   1.000
    O7631   O    0.00626   0.50700   0.97974   1.000
    O7632   O    0.49550   0.51736   0.96119   1.000
    O7633   O    0.51737   0.49551   0.96119   1.000
    O7634   O    0.50700   0.50700   0.97974   1.000
    O7635   O    0.04236   0.51984   0.96967   1.000
    O7636   O    0.46813   0.51984   0.96967   1.000
    O7637   O    0.04236   0.46813   0.96967   1.000
    O7638   O    0.46814   0.04236   0.96967   1.000
    O7639   O    0.51984   0.46813   0.96967   1.000
    O7640   O    0.51984   0.04236   0.96967   1.000
    O7641   O    0.17077   0.62498   0.96376   1.000
    O7642   O    0.15825   0.61415   0.96580   1.000
    O7643   O    0.24050   0.17077   0.96376   1.000
    O7644   O    0.26179   0.15825   0.96580   1.000
    O7645   O    0.24050   0.62498   0.96376   1.000
    O7646   O    0.26179   0.61415   0.96580   1.000
    O7647   O    0.62497   0.17077   0.96376   1.000
    O7648   O    0.61416   0.15825   0.96580   1.000
    O7649   O    0.62498   0.24050   0.96376   1.000
    O7650   O    0.61416   0.26179   0.96580   1.000
    O7651   O    0.17077   0.24050   0.96376   1.000
    O7652   O    0.15825   0.26179   0.96580   1.000
    O7653   O    0.22592   0.61318   0.96908   1.000
    O7654   O    0.19181   0.22592   0.96908   1.000
    O7655   O    0.61318   0.22592   0.96908   1.000
    O7656   O    0.19181   0.61318   0.96908   1.000
    O7657   O    0.61318   0.19181   0.96908   1.000
    O7658   O    0.22593   0.19181   0.96908   1.000
    O7659   O    0.61530   0.48256   0.97028   1.000
    O7660   O    0.63405   0.47614   0.97167   1.000
    O7661   O    0.93186   0.61530   0.97028   1.000
    O7662   O    0.91815   0.63405   0.97167   1.000
    O7663   O    0.61530   0.93186   0.97028   1.000
    O7664   O    0.63406   0.91815   0.97167   1.000
    O7665   O    0.93187   0.48256   0.97028   1.000
    O7666   O    0.91815   0.47614   0.97167   1.000
    O7667   O    0.48256   0.61530   0.97028   1.000
    O7668   O    0.47613   0.63405   0.97167   1.000
    O7669   O    0.48256   0.93186   0.97028   1.000
    O7670   O    0.47614   0.91815   0.97167   1.000
    O7671   O    0.32320   0.58476   0.96613   1.000
    O7672   O    0.58477   0.32320   0.96613   1.000
    O7673   O    0.58476   0.12590   0.96613   1.000
    O7674   O    0.12591   0.32320   0.96613   1.000
    O7675   O    0.12590   0.58476   0.96613   1.000
    O7676   O    0.32320   0.12590   0.96613   1.000
    O7677   O    0.28815   0.14646   0.96759   1.000
    O7678   O    0.30113   0.12118   0.97995   1.000
    O7679   O    0.14646   0.28815   0.96759   1.000
    O7680   O    0.12118   0.30112   0.97995   1.000
    O7681   O    0.59780   0.14646   0.96759   1.000
    O7682   O    0.59774   0.12118   0.97995   1.000
    O7683   O    0.28815   0.59780   0.96759   1.000
    O7684   O    0.30112   0.59774   0.97995   1.000
    O7685   O    0.59780   0.28815   0.96759   1.000
    O7686   O    0.59774   0.30112   0.97995   1.000
    O7687   O    0.14646   0.59780   0.96759   1.000
    O7688   O    0.12118   0.59774   0.97995   1.000
    O7689   O    0.55351   0.96327   0.98100   1.000
    O7690   O    0.96327   0.50222   0.98100   1.000
    O7691   O    0.55351   0.50222   0.98100   1.000
    O7692   O    0.96327   0.55351   0.98100   1.000
    O7693   O    0.50223   0.96327   0.98100   1.000
    O7694   O    0.50222   0.55351   0.98100   1.000
    O7695   O    0.44549   0.05507   0.97437   1.000
    O7696   O    0.42122   0.06822   0.97961   1.000
    O7697   O    0.52507   0.44549   0.97437   1.000
    O7698   O    0.53095   0.42121   0.97961   1.000
    O7699   O    0.05508   0.52507   0.97437   1.000
    O7700   O    0.06822   0.53096   0.97961   1.000
    O7701   O    0.52507   0.05507   0.97437   1.000
    O7702   O    0.53095   0.06822   0.97961   1.000
    O7703   O    0.44549   0.52507   0.97437   1.000
    O7704   O    0.42122   0.53096   0.97961   1.000
    O7705   O    0.05508   0.44549   0.97437   1.000
    O7706   O    0.06822   0.42121   0.97961   1.000
    O7707   O    0.90251   0.71756   0.97475   1.000
    O7708   O    0.71757   0.90251   0.97475   1.000
    O7709   O    0.40518   0.71756   0.97475   1.000
    O7710   O    0.90251   0.40518   0.97475   1.000
    O7711   O    0.40518   0.90251   0.97475   1.000
    O7712   O    0.71757   0.40518   0.97475   1.000
    O7713   O    0.60143   0.21267   0.97322   1.000
    O7714   O    0.59217   0.20047   0.97620   1.000
    O7715   O    0.21267   0.21267   0.97322   1.000
    O7716   O    0.23116   0.20047   0.97620   1.000
    O7717   O    0.59216   0.23116   0.97620   1.000
    O7718   O    0.21268   0.60143   0.97322   1.000
    O7719   O    0.20047   0.59216   0.97620   1.000
    O7720   O    0.23116   0.59216   0.97620   1.000
    O7721   O    0.20047   0.23116   0.97620   1.000
    O7722   O    0.59662   0.93044   0.98408   1.000
    O7723   O    0.59662   0.48886   0.98408   1.000
    O7724   O    0.93044   0.48886   0.98408   1.000
    O7725   O    0.93044   0.59662   0.98408   1.000
    O7726   O    0.48886   0.59662   0.98408   1.000
    O7727   O    0.48886   0.93044   0.98408   1.000
    O7728   O    0.09175   0.63584   0.98821   1.000
    O7729   O    0.09175   0.28420   0.98821   1.000
    O7730   O    0.63584   0.28420   0.98821   1.000
    O7731   O    0.63585   0.09175   0.98821   1.000
    O7732   O    0.28420   0.63584   0.98821   1.000
    O7733   O    0.28420   0.09175   0.98821   1.000
    O7734   O    0.53700   0.08011   0.98525   1.000
    O7735   O    0.54317   0.09062   0.98914   1.000
    O7736   O    0.08011   0.39763   0.98525   1.000
    O7737   O    0.09062   0.37706   0.98914   1.000
    O7738   O    0.53700   0.39763   0.98525   1.000
    O7739   O    0.54318   0.37706   0.98914   1.000
    O7740   O    0.39763   0.08011   0.98525   1.000
    O7741   O    0.37706   0.09062   0.98914   1.000
    O7742   O    0.39763   0.53700   0.98525   1.000
    O7743   O    0.37706   0.54318   0.98914   1.000
    O7744   O    0.08011   0.53700   0.98525   1.000
    O7745   O    0.09062   0.54318   0.98914   1.000
    O7746   O    0.09861   0.29195   0.99535   1.000
    O7747   O    0.61409   0.29195   0.99535   1.000
    O7748   O    0.29195   0.61409   0.99535   1.000
    O7749   O    0.29195   0.09861   0.99535   1.000
    O7750   O    0.61409   0.09861   0.99535   1.000
    O7751   O    0.09862   0.61409   0.99535   1.000
    O7752   O    0.11961   0.29696   0.64135   1.000
    O7753   O    0.29696   0.11961   0.94208   1.000
    O7754   O    0.64135   0.94208   0.11962   1.000
    O7755   O    0.95304   0.60865   0.30793   1.000
    O7756   O    0.60865   0.13038   0.30793   1.000
    O7757   O    0.94207   0.29696   0.11962   1.000
    O7758   O    0.13039   0.60865   0.95304   1.000
    O7759   O    0.30792   0.95304   0.60865   1.000
    O7760   O    0.29696   0.64135   0.11962   1.000
    O7761   O    0.11961   0.94208   0.29696   1.000
    O7762   O    0.95304   0.13038   0.60865   1.000
    O7763   O    0.60865   0.30793   0.95304   1.000
    O7764   O    0.13038   0.95304   0.60865   1.000
    O7765   O    0.94207   0.11961   0.29696   1.000
    O7766   O    0.60865   0.30792   0.13039   1.000
    O7767   O    0.30792   0.60865   0.95304   1.000
    O7768   O    0.60865   0.13039   0.95304   1.000
    O7769   O    0.29696   0.94208   0.11962   1.000
    O7770   O    0.13038   0.60865   0.30793   1.000
    O7771   O    0.95304   0.30793   0.60865   1.000
    O7772   O    0.94208   0.64135   0.11962   1.000
    O7773   O    0.11962   0.29696   0.94208   1.000
    O7774   O    0.29696   0.11962   0.64135   1.000
    O7775   O    0.64135   0.94208   0.29696   1.000
    O7776   O    0.24070   0.24070   0.75930   1.000
    O7777   O    0.75930   0.75930   0.24070   1.000
    O7778   O    0.75930   0.24070   0.24070   1.000
    O7779   O    0.24070   0.75930   0.75930   1.000
    O7780   O    0.24070   0.75930   0.24070   1.000
    O7781   O    0.75930   0.24070   0.75930   1.000
    O7782   O    0.00930   0.00930   0.49070   1.000
    O7783   O    0.49070   0.49070   0.00930   1.000
    O7784   O    0.49070   0.00930   0.49070   1.000
    O7785   O    0.00930   0.49070   0.00930   1.000
    O7786   O    0.00930   0.49070   0.49070   1.000
    O7787   O    0.49070   0.00930   0.00930   1.000
    O7788   O    0.32819   0.32818   0.50536   1.000
    O7789   O    0.32819   0.32818   0.83826   1.000
    O7790   O    0.50536   0.83826   0.32819   1.000
    O7791   O    0.83826   0.50536   0.32819   1.000
    O7792   O    0.50536   0.32818   0.32819   1.000
    O7793   O    0.83826   0.32818   0.32819   1.000
    O7794   O    0.32818   0.50536   0.83826   1.000
    O7795   O    0.32819   0.83826   0.50536   1.000
    O7796   O    0.32819   0.50536   0.32819   1.000
    O7797   O    0.32819   0.83826   0.32819   1.000
    O7798   O    0.83826   0.32818   0.50536   1.000
    O7799   O    0.50536   0.32818   0.83826   1.000
    O7800   O    0.92182   0.92182   0.41174   1.000
    O7801   O    0.92182   0.92182   0.74464   1.000
    O7802   O    0.74464   0.41174   0.92182   1.000
    O7803   O    0.41174   0.74464   0.92182   1.000
    O7804   O    0.74464   0.92182   0.41174   1.000
    O7805   O    0.41174   0.92182   0.74464   1.000
    O7806   O    0.92182   0.74464   0.92182   1.000
    O7807   O    0.92182   0.41174   0.92182   1.000
    O7808   O    0.92181   0.74464   0.41174   1.000
    O7809   O    0.92181   0.41174   0.74464   1.000
    O7810   O    0.41174   0.92181   0.92182   1.000
    O7811   O    0.74464   0.92181   0.92182   1.000
    O7812   O    0.43647   0.46299   0.46300   1.000
    O7813   O    0.43647   0.46299   0.63755   1.000
    O7814   O    0.43647   0.63754   0.46300   1.000
    O7815   O    0.63755   0.46299   0.43647   1.000
    O7816   O    0.81353   0.78701   0.61246   1.000
    O7817   O    0.81353   0.78701   0.78701   1.000
    O7818   O    0.78701   0.61246   0.81353   1.000
    O7819   O    0.61245   0.81353   0.78701   1.000
loop_
    _geom_bond_atom_site_label_1
    _geom_bond_atom_site_label_2
    _geom_bond_distance
    _geom_bond_site_symmetry_2
    _ccdc_geom_bond_type
    C1795  O3536     0.94911      .   S
    C3206  O3536     0.94911      .   S
    C1795  O3537     0.63735  1_554   S
    C1772  O3537     0.63735      .   S
    C2185  O3538     0.94911      .   S
    C3210  O3538     0.94911      .   S
    C2185  O3539     0.63735  1_554   S
    C2162  O3539     0.63735      .   S
    C1470  O3540     0.94911      .   S
    C3214  O3540     0.94911      .   S
    C1470  O3541     0.63735  1_554   S
    C1447  O3541     0.63735      .   S
    C1860  O3542     0.94911      .   S
    C3214  O3542     0.94911      .   S
    C1860  O3543     0.63735  1_554   S
    C1837  O3543     0.63735      .   S
    C950   O3544     0.94911      .   S
    C3206  O3544     0.94911      .   S
    C950   O3545     0.63735  1_554   S
    C927   O3545     0.63735      .   S
    C1210  O3546     0.94911      .   S
    C3210  O3546     0.94911      .   S
    C1210  O3547     0.63735  1_554   S
    C1187  O3547     0.63735      .   S
    C1845  O3548     0.70508      .   S
    C1843  O3548     0.70508      .   S
    C1845  O3549     0.70038      .   S
    C1849  O3549     0.70038      .   S
    C1845  O3550     0.73985  1_554   S
    C1844  O3550     0.73985      .   S
    C1780  O3551     0.70508      .   S
    C1778  O3551     0.70508      .   S
    C1780  O3552     0.70056      .   S
    C1784  O3552     0.70056      .   S
    C1780  O3553     0.73985  1_554   S
    C1779  O3553     0.73985      .   S
    C935   O3554     0.70508      .   S
    C933   O3554     0.70508      .   S
    C935   O3555     0.70056      .   S
    C939   O3555     0.70056      .   S
    C935   O3556     0.73985  1_554   S
    C934   O3556     0.73985      .   S
    C1195  O3557     0.70508      .   S
    C1193  O3557     0.70508      .   S
    C1195  O3558     0.70038      .   S
    C1199  O3558     0.70038      .   S
    C1195  O3559     0.73985  1_554   S
    C1194  O3559     0.73985      .   S
    C2170  O3560     0.70508      .   S
    C2168  O3560     0.70508      .   S
    C2170  O3561     0.70057      .   S
    C2174  O3561     0.70057      .   S
    C2170  O3562     0.73985  1_554   S
    C2169  O3562     0.73985      .   S
    C1455  O3563     0.70508      .   S
    C1453  O3563     0.70508      .   S
    C1455  O3564     0.70057      .   S
    C1459  O3564     0.70057      .   S
    C1455  O3565     0.73985  1_554   S
    C1454  O3565     0.73985      .   S
    C2201  O3566     0.54171  1_554   S
    C2161  O3566     0.54171      .   S
    C1486  O3567     0.54171  1_554   S
    C1446  O3567     0.54171      .   S
    C1876  O3568     0.54146  1_554   S
    C1836  O3568     0.54146      .   S
    C966   O3569     0.54149  1_554   S
    C926   O3569     0.54149      .   S
    C1226  O3570     0.54146  1_554   S
    C1186  O3570     0.54146      .   S
    C1811  O3571     0.54149  1_554   S
    C1771  O3571     0.54149      .   S
    C933   O3572     0.70119      .   S
    C936   O3572     0.70119      .   S
    C933   O3573     0.54140      .   S
    C971   O3573     0.54140  1_556   S
    C2168  O3574     0.70119      .   S
    C2171  O3574     0.70119      .   S
    C2168  O3575     0.54140      .   S
    C2206  O3575     0.54140  1_556   S
    C1778  O3576     0.70119      .   S
    C1781  O3576     0.70119      .   S
    C1778  O3577     0.54140      .   S
    C1816  O3577     0.54140  1_556   S
    C1193  O3578     0.70119      .   S
    C1196  O3578     0.70119      .   S
    C1193  O3579     0.54159      .   S
    C1231  O3579     0.54159  1_556   S
    C1843  O3580     0.70119      .   S
    C1846  O3580     0.70119      .   S
    C1843  O3581     0.54159      .   S
    C1881  O3581     0.54159  1_556   S
    C1453  O3582     0.70119      .   S
    C1456  O3582     0.70119      .   S
    C1453  O3583     0.54140      .   S
    C1491  O3583     0.54140  1_556   S
    C2199  O3584     0.54126      .   S
    C2157  O3584     0.54126      .   S
    C1484  O3585     0.54126      .   S
    C1442  O3585     0.54126      .   S
    C964   O3586     0.54126      .   S
    C922   O3586     0.54126      .   S
    C1874  O3587     0.54126      .   S
    C1832  O3587     0.54126      .   S
    C1809  O3588     0.54126      .   S
    C1767  O3588     0.54126      .   S
    C1224  O3589     0.54126      .   S
    C1182  O3589     0.54126      .   S
    C3239  O3590     0.94461      .   S
    C1926  O3590     0.94461      .   S
    C3239  O3591     0.94483      .   S
    C1536  O3591     0.94483      .   S
    C3239  O3592     0.94522      .   S
    C1928  O3592     0.94522  1_556   S
    C3239  O3593     0.94522      .   S
    C1538  O3593     0.94522  1_556   S
    C3239  O3594     0.96312      .   S
    C3215  O3594     0.96312  1_556   S
    C3235  O3595     0.94483      .   S
    C2121  O3595     0.94483      .   S
    C3235  O3596     0.94461      .   S
    C1276  O3596     0.94461      .   S
    C3235  O3597     0.94522      .   S
    C1278  O3597     0.94522  1_556   S
    C3235  O3598     0.94522      .   S
    C2123  O3598     0.94522  1_556   S
    C3235  O3599     0.96312      .   S
    C3211  O3599     0.96312  1_556   S
    C3231  O3600     0.94466      .   S
    C1016  O3600     0.94466      .   S
    C3231  O3601     0.94466      .   S
    C1731  O3601     0.94466      .   S
    C3231  O3602     0.94522      .   S
    C1733  O3602     0.94522  1_556   S
    C3231  O3603     0.94522      .   S
    C1018  O3603     0.94522  1_556   S
    C3231  O3604     0.96312      .   S
    C3207  O3604     0.96312  1_556   S
    C3206  O3605     0.94911      .   S
    C1730  O3605     0.94911      .   S
    C3206  O3606     0.94911      .   S
    C1015  O3606     0.94911      .   S
    C3210  O3607     0.94911      .   S
    C1275  O3607     0.94911      .   S
    C3210  O3608     0.94911      .   S
    C2120  O3608     0.94911      .   S
    C3214  O3609     0.94911      .   S
    C1535  O3609     0.94911      .   S
    C3214  O3610     0.94911      .   S
    C1925  O3610     0.94911      .   S
    C1493  O3611     0.54156      .   S
    C1459  O3611     0.54156      .   S
    C1883  O3612     0.54177      .   S
    C1849  O3612     0.54177      .   S
    C1233  O3613     0.54177      .   S
    C1199  O3613     0.54177      .   S
    C1818  O3614     0.54146      .   S
    C1784  O3614     0.54146      .   S
    C973   O3615     0.54146      .   S
    C939   O3615     0.54146      .   S
    C2208  O3616     0.54156      .   S
    C2174  O3616     0.54156      .   S
    C1831  O3617     0.70579      .   S
    C1832  O3617     0.70579      .   S
    C1831  O3618     0.70542      .   S
    C1829  O3618     0.70542      .   S
    C1831  O3619     0.75548      .   S
    C1830  O3619     0.75548  1_556   S
    C1441  O3620     0.70557      .   S
    C1442  O3620     0.70557      .   S
    C1441  O3621     0.70564      .   S
    C1439  O3621     0.70564      .   S
    C1441  O3622     0.75550      .   S
    C1440  O3622     0.75550  1_556   S
    C1181  O3623     0.70579      .   S
    C1182  O3623     0.70579      .   S
    C1181  O3624     0.70542      .   S
    C1179  O3624     0.70542      .   S
    C1181  O3625     0.75548      .   S
    C1180  O3625     0.75548  1_556   S
    C2156  O3626     0.70557      .   S
    C2157  O3626     0.70557      .   S
    C2156  O3627     0.70564      .   S
    C2154  O3627     0.70564      .   S
    C2156  O3628     0.75550      .   S
    C2155  O3628     0.75550  1_556   S
    C921   O3629     0.70587      .   S
    C922   O3629     0.70587      .   S
    C921   O3630     0.70550      .   S
    C919   O3630     0.70550      .   S
    C921   O3631     0.75535      .   S
    C920   O3631     0.75535  1_556   S
    C1766  O3632     0.70587      .   S
    C1767  O3632     0.70587      .   S
    C1766  O3633     0.70550      .   S
    C1764  O3633     0.70550      .   S
    C1766  O3634     0.75535      .   S
    C1765  O3634     0.75535  1_556   S
    C2174  O3635     0.69514      .   S
    C2175  O3635     0.69514      .   S
    C1459  O3636     0.69514      .   S
    C1460  O3636     0.69514      .   S
    C939   O3637     0.69514      .   S
    C940   O3637     0.69514      .   S
    C1849  O3638     0.69514      .   S
    C1850  O3638     0.69514      .   S
    C1199  O3639     0.69514      .   S
    C1200  O3639     0.69514      .   S
    C1784  O3640     0.69514      .   S
    C1785  O3640     0.69514      .   S
    C1442  O3641     0.70538      .   S
    C1897  O3641     0.70538      .   S
    C1832  O3642     0.70538      .   S
    C1507  O3642     0.70538      .   S
    C922   O3643     0.70538      .   S
    C1702  O3643     0.70538      .   S
    C2157  O3644     0.70538      .   S
    C1247  O3644     0.70538      .   S
    C1767  O3645     0.70538      .   S
    C987   O3645     0.70538      .   S
    C1182  O3646     0.70538      .   S
    C2092  O3646     0.70538      .   S
    C1846  O3647     0.54137      .   S
    C1882  O3647     0.54137      .   S
    C1846  O3648     0.70213      .   S
    C1848  O3648     0.70213      .   S
    C1781  O3649     0.54167      .   S
    C1817  O3649     0.54167      .   S
    C1781  O3650     0.70213      .   S
    C1783  O3650     0.70213      .   S
    C2171  O3651     0.54157      .   S
    C2207  O3651     0.54157      .   S
    C2171  O3652     0.70213      .   S
    C2173  O3652     0.70213      .   S
    C1456  O3653     0.54157      .   S
    C1492  O3653     0.54157      .   S
    C1456  O3654     0.70213      .   S
    C1458  O3654     0.70213      .   S
    C1196  O3655     0.54137      .   S
    C1232  O3655     0.54137      .   S
    C1196  O3656     0.70213      .   S
    C1198  O3656     0.70213      .   S
    C936   O3657     0.54167      .   S
    C972   O3657     0.54167      .   S
    C936   O3658     0.70213      .   S
    C938   O3658     0.70213      .   S
    C1016  O3659     0.63643      .   S
    C992   O3659     0.63643      .   S
    C2121  O3660     0.63614      .   S
    C2097  O3660     0.63614      .   S
    C1731  O3661     0.63643      .   S
    C1707  O3661     0.63643      .   S
    C1926  O3662     0.63626      .   S
    C1902  O3662     0.63626      .   S
    C1536  O3663     0.63614      .   S
    C1512  O3663     0.63614      .   S
    C1276  O3664     0.63626      .   S
    C1252  O3664     0.63626      .   S
    C1808  O3665     0.54136      .   S
    C1764  O3665     0.54136      .   S
    C963   O3666     0.54136      .   S
    C919   O3666     0.54136      .   S
    C1223  O3667     0.54143      .   S
    C1179  O3667     0.54143      .   S
    C2198  O3668     0.54166      .   S
    C2154  O3668     0.54166      .   S
    C1483  O3669     0.54166      .   S
    C1439  O3669     0.54166      .   S
    C1873  O3670     0.54143      .   S
    C1829  O3670     0.54143      .   S
    C1439  O3671     0.70475      .   S
    C1894  O3671     0.70475      .   S
    C919   O3672     0.70475      .   S
    C1699  O3672     0.70475      .   S
    C1179  O3673     0.70475      .   S
    C2089  O3673     0.70475      .   S
    C2154  O3674     0.70475      .   S
    C1244  O3674     0.70475      .   S
    C1764  O3675     0.70475      .   S
    C984   O3675     0.70475      .   S
    C1829  O3676     0.70475      .   S
    C1504  O3676     0.70475      .   S
    C1730  O3677     0.63735      .   S
    C1707  O3677     0.63735      .   S
    C1535  O3678     0.63735  1_545   S
    C1512  O3678     0.63735      .   S
    C1275  O3679     0.63735  1_455   S
    C1252  O3679     0.63735      .   S
    C1015  O3680     0.63735      .   S
    C992   O3680     0.63735      .   S
    C2120  O3681     0.63735  1_455   S
    C2097  O3681     0.63735      .   S
    C1925  O3682     0.63735  1_545   S
    C1902  O3682     0.63735      .   S
    C992   O3683     0.75417      .   S
    C993   O3683     0.75417      .   S
    C1707  O3684     0.75417      .   S
    C1708  O3684     0.75417      .   S
    C1902  O3685     0.75417      .   S
    C1903  O3685     0.75417      .   S
    C1252  O3686     0.75417      .   S
    C1253  O3686     0.75417      .   S
    C2097  O3687     0.75417      .   S
    C2098  O3687     0.75417      .   S
    C1512  O3688     0.75417      .   S
    C1513  O3688     0.75417      .   S
    C940   O3689     0.70439      .   S
    C938   O3689     0.70439      .   S
    C940   O3690     0.54145      .   S
    C974   O3690     0.54145      .   S
    C1460  O3691     0.70428      .   S
    C1458  O3691     0.70428      .   S
    C1460  O3692     0.54144      .   S
    C1494  O3692     0.54144      .   S
    C1200  O3693     0.70409      .   S
    C1198  O3693     0.70409      .   S
    C1200  O3694     0.54163      .   S
    C1234  O3694     0.54163      .   S
    C1785  O3695     0.70439      .   S
    C1783  O3695     0.70439      .   S
    C1785  O3696     0.54145      .   S
    C1819  O3696     0.54145      .   S
    C1850  O3697     0.70409      .   S
    C1848  O3697     0.70409      .   S
    C1850  O3698     0.54163      .   S
    C1884  O3698     0.54163      .   S
    C2175  O3699     0.70428      .   S
    C2173  O3699     0.70428      .   S
    C2175  O3700     0.54144      .   S
    C2209  O3700     0.54144      .   S
    C1897  O3701     0.54126      .   S
    C1939  O3701     0.54126      .   S
    C1897  O3702     0.70557      .   S
    C1896  O3702     0.70557      .   S
    C1247  O3703     0.54126      .   S
    C1289  O3703     0.54126      .   S
    C1247  O3704     0.70557      .   S
    C1246  O3704     0.70557      .   S
    C987   O3705     0.54126      .   S
    C1029  O3705     0.54126      .   S
    C987   O3706     0.70570      .   S
    C986   O3706     0.70570      .   S
    C2092  O3707     0.54126      .   S
    C2134  O3707     0.54126      .   S
    C2092  O3708     0.70579      .   S
    C2091  O3708     0.70579      .   S
    C1702  O3709     0.54126      .   S
    C1744  O3709     0.54126      .   S
    C1702  O3710     0.70570      .   S
    C1701  O3710     0.70570      .   S
    C1507  O3711     0.54126      .   S
    C1549  O3711     0.54126      .   S
    C1507  O3712     0.70579      .   S
    C1506  O3712     0.70579      .   S
    C1458  O3713     0.74063      .   S
    C2822  O3713     0.74063      .   S
    C1783  O3714     0.74077      .   S
    C547   O3714     0.74077      .   S
    C938   O3715     0.74077      .   S
    C3082  O3715     0.74077      .   S
    C2173  O3716     0.74063      .   S
    C352   O3716     0.74063      .   S
    C1848  O3717     0.74064      .   S
    C157   O3717     0.74064      .   S
    C1198  O3718     0.74064      .   S
    C2562  O3718     0.74064      .   S
    C2138  O3719     0.54145      .   S
    C2100  O3719     0.54145      .   S
    C1748  O3720     0.54115      .   S
    C1710  O3720     0.54115      .   S
    C1293  O3721     0.54132      .   S
    C1255  O3721     0.54132      .   S
    C1943  O3722     0.54132      .   S
    C1905  O3722     0.54132      .   S
    C1033  O3723     0.54115      .   S
    C995   O3723     0.54115      .   S
    C1553  O3724     0.54145      .   S
    C1515  O3724     0.54145      .   S
    C993   O3725     0.70505      .   S
    C995   O3725     0.70505      .   S
    C993   O3726     0.70580      .   S
    C991   O3726     0.70580      .   S
    C1903  O3727     0.70505      .   S
    C1905  O3727     0.70505      .   S
    C1903  O3728     0.70565      .   S
    C1901  O3728     0.70565      .   S
    C1253  O3729     0.70505      .   S
    C1255  O3729     0.70505      .   S
    C1253  O3730     0.70565      .   S
    C1251  O3730     0.70565      .   S
    C1513  O3731     0.70505      .   S
    C1515  O3731     0.70505      .   S
    C1513  O3732     0.70551      .   S
    C1511  O3732     0.70551      .   S
    C2098  O3733     0.70505      .   S
    C2100  O3733     0.70505      .   S
    C2098  O3734     0.70551      .   S
    C2096  O3734     0.70551      .   S
    C1708  O3735     0.70505      .   S
    C1710  O3735     0.70505      .   S
    C1708  O3736     0.70580      .   S
    C1706  O3736     0.70580      .   S
    C1699  O3737     0.70534      .   S
    C1701  O3737     0.70534      .   S
    C1699  O3738     0.54151      .   S
    C1743  O3738     0.54151      .   S
    C1894  O3739     0.70564      .   S
    C1896  O3739     0.70564      .   S
    C1894  O3740     0.54166      .   S
    C1938  O3740     0.54166      .   S
    C1504  O3741     0.70542      .   S
    C1506  O3741     0.70542      .   S
    C1504  O3742     0.54143      .   S
    C1548  O3742     0.54143      .   S
    C2089  O3743     0.70542      .   S
    C2091  O3743     0.70542      .   S
    C2089  O3744     0.54143      .   S
    C2133  O3744     0.54143      .   S
    C984   O3745     0.70534      .   S
    C986   O3745     0.70534      .   S
    C984   O3746     0.54151      .   S
    C1028  O3746     0.54151      .   S
    C1244  O3747     0.70564      .   S
    C1246  O3747     0.70564      .   S
    C1244  O3748     0.54166      .   S
    C1288  O3748     0.54166      .   S
    C1255  O3749     0.70324      .   S
    C1254  O3749     0.70324      .   S
    C995   O3750     0.70324      .   S
    C994   O3750     0.70324      .   S
    C1905  O3751     0.70324      .   S
    C1904  O3751     0.70324      .   S
    C1710  O3752     0.70324      .   S
    C1709  O3752     0.70324      .   S
    C2100  O3753     0.70324      .   S
    C2099  O3753     0.70324      .   S
    C1515  O3754     0.70324      .   S
    C1514  O3754     0.70324      .   S
    C2091  O3755     0.75548      .   S
    C2090  O3755     0.75548  1_655   S
    C1701  O3756     0.75566      .   S
    C1700  O3756     0.75566      .   S
    C1246  O3757     0.75550      .   S
    C1245  O3757     0.75550  1_655   S
    C1506  O3758     0.75548      .   S
    C1505  O3758     0.75548  1_565   S
    C986   O3759     0.75566      .   S
    C985   O3759     0.75566      .   S
    C1896  O3760     0.75550      .   S
    C1895  O3760     0.75550  1_565   S
    C2136  O3761     0.54146  1_455   S
    C2096  O3761     0.54146      .   S
    C1031  O3762     0.54109      .   S
    C991   O3762     0.54109      .   S
    C1291  O3763     0.54171  1_455   S
    C1251  O3763     0.54171      .   S
    C1551  O3764     0.54146  1_545   S
    C1511  O3764     0.54146      .   S
    C1746  O3765     0.54109      .   S
    C1706  O3765     0.54109      .   S
    C1941  O3766     0.54171  1_545   S
    C1901  O3766     0.54171      .   S
    C991   O3767     0.70600      .   S
    C988   O3767     0.70600      .   S
    C1901  O3768     0.70600      .   S
    C1898  O3768     0.70600      .   S
    C1511  O3769     0.70600      .   S
    C1508  O3769     0.70600      .   S
    C1251  O3770     0.70600      .   S
    C1248  O3770     0.70600      .   S
    C1706  O3771     0.70600      .   S
    C1703  O3771     0.70600      .   S
    C2096  O3772     0.70600      .   S
    C2093  O3772     0.70600      .   S
    C157   O3773     0.63636      .   S
    C176   O3773     0.63636      .   S
    C157   O3774     0.63139      .   S
    C1542  O3774     0.63139      .   S
    C3082  O3775     0.63606      .   S
    C3101  O3775     0.63606      .   S
    C3082  O3776     0.63139      .   S
    C1737  O3776     0.63139      .   S
    C2562  O3777     0.63636      .   S
    C2581  O3777     0.63636      .   S
    C2562  O3778     0.63139      .   S
    C2127  O3778     0.63139      .   S
    C352   O3779     0.63614      .   S
    C371   O3779     0.63614      .   S
    C352   O3780     0.63139      .   S
    C1282  O3780     0.63139      .   S
    C547   O3781     0.63606      .   S
    C566   O3781     0.63606      .   S
    C547   O3782     0.63139      .   S
    C1022  O3782     0.63139      .   S
    C2822  O3783     0.63614      .   S
    C2841  O3783     0.63614      .   S
    C2822  O3784     0.63139      .   S
    C1932  O3784     0.63139      .   S
    C1254  O3785     0.54143      .   S
    C1292  O3785     0.54143      .   S
    C1254  O3786     0.70517      .   S
    C1250  O3786     0.70517      .   S
    C1904  O3787     0.54143      .   S
    C1942  O3787     0.54143      .   S
    C1904  O3788     0.70517      .   S
    C1900  O3788     0.70517      .   S
    C1709  O3789     0.54112      .   S
    C1747  O3789     0.54112      .   S
    C1709  O3790     0.70517      .   S
    C1705  O3790     0.70517      .   S
    C2099  O3791     0.54131      .   S
    C2137  O3791     0.54131      .   S
    C2099  O3792     0.70517      .   S
    C2095  O3792     0.70517      .   S
    C994   O3793     0.54112      .   S
    C1032  O3793     0.54112      .   S
    C994   O3794     0.70517      .   S
    C990   O3794     0.70517      .   S
    C1514  O3795     0.54131      .   S
    C1552  O3795     0.54131      .   S
    C1514  O3796     0.70517      .   S
    C1510  O3796     0.70517      .   S
    C2841  O3797     0.94636      .   S
    C2795  O3797     0.94636      .   S
    C3101  O3798     0.94636      .   S
    C3055  O3798     0.94636      .   S
    C2581  O3799     0.94636      .   S
    C2535  O3799     0.94636      .   S
    C566   O3800     0.94636      .   S
    C520   O3800     0.94636      .   S
    C371   O3801     0.94636      .   S
    C325   O3801     0.94636      .   S
    C176   O3802     0.94636      .   S
    C130   O3802     0.94636      .   S
    C988   O3803     0.70575      .   S
    C990   O3803     0.70575      .   S
    C988   O3804     0.54117      .   S
    C1030  O3804     0.54117      .   S
    C1248  O3805     0.70544      .   S
    C1250  O3805     0.70544      .   S
    C1248  O3806     0.54117      .   S
    C1290  O3806     0.54117      .   S
    C1703  O3807     0.70575      .   S
    C1705  O3807     0.70575      .   S
    C1703  O3808     0.54117      .   S
    C1745  O3808     0.54117      .   S
    C2093  O3809     0.70558      .   S
    C2095  O3809     0.70558      .   S
    C2093  O3810     0.54117      .   S
    C2135  O3810     0.54117      .   S
    C1898  O3811     0.70544      .   S
    C1900  O3811     0.70544      .   S
    C1898  O3812     0.54117      .   S
    C1940  O3812     0.54117      .   S
    C1508  O3813     0.70558      .   S
    C1510  O3813     0.70558      .   S
    C1508  O3814     0.54117      .   S
    C1550  O3814     0.54117      .   S
    C1895  O3815     0.63776      .   S
    C2832  O3815     0.63776      .   S
    C1895  O3816     0.63699      .   S
    C1921  O3816     0.63699      .   S
    C985   O3817     0.63746      .   S
    C557   O3817     0.63746      .   S
    C985   O3818     0.63699      .   S
    C1011  O3818     0.63699      .   S
    C1505  O3819     0.63754      .   S
    C167   O3819     0.63754      .   S
    C1505  O3820     0.63699      .   S
    C1531  O3820     0.63699      .   S
    C1245  O3821     0.63776      .   S
    C362   O3821     0.63776      .   S
    C1245  O3822     0.63699      .   S
    C1271  O3822     0.63699      .   S
    C1700  O3823     0.63746      .   S
    C3092  O3823     0.63746      .   S
    C1700  O3824     0.63699      .   S
    C1726  O3824     0.63699      .   S
    C2090  O3825     0.63754      .   S
    C2572  O3825     0.63754      .   S
    C2090  O3826     0.63699      .   S
    C2116  O3826     0.63699      .   S
    C990   O3827     0.75436      .   S
    C989   O3827     0.75436      .   S
    C1250  O3828     0.75436      .   S
    C1249  O3828     0.75436      .   S
    C1900  O3829     0.75436      .   S
    C1899  O3829     0.75436      .   S
    C1705  O3830     0.75436      .   S
    C1704  O3830     0.75436      .   S
    C1510  O3831     0.75436      .   S
    C1509  O3831     0.75436      .   S
    C2095  O3832     0.75436      .   S
    C2094  O3832     0.75436      .   S
    C1022  O3833     0.92444      .   S
    C3160  O3833     0.92444      .   S
    C1737  O3834     0.92444      .   S
    C3172  O3834     0.92444      .   S
    C1932  O3835     0.92457      .   S
    C3178  O3835     0.92457      .   S
    C2127  O3836     0.92446      .   S
    C3184  O3836     0.92446      .   S
    C1542  O3837     0.92446      .   S
    C3148  O3837     0.92446      .   S
    C1282  O3838     0.92457      .   S
    C3154  O3838     0.92457      .   S
    C2572  O3839     0.94974      .   S
    C2535  O3839     0.94974      .   S
    C557   O3840     0.94994      .   S
    C520   O3840     0.94994      .   S
    C167   O3841     0.94974      .   S
    C130   O3841     0.94974      .   S
    C3092  O3842     0.94994      .   S
    C3055  O3842     0.94994      .   S
    C2832  O3843     0.94970      .   S
    C2795  O3843     0.94970      .   S
    C362   O3844     0.94970      .   S
    C325   O3844     0.94970      .   S
    C1899  O3845     0.63651      .   S
    C1924  O3845     0.63651      .   S
    C1899  O3846     0.63747      .   S
    C1923  O3846     0.63747      .   S
    C1509  O3847     0.63638      .   S
    C1534  O3847     0.63638      .   S
    C1509  O3848     0.63747      .   S
    C1533  O3848     0.63747      .   S
    C1704  O3849     0.63620      .   S
    C1729  O3849     0.63620      .   S
    C1704  O3850     0.63747      .   S
    C1728  O3850     0.63747      .   S
    C1249  O3851     0.63651      .   S
    C1274  O3851     0.63651      .   S
    C1249  O3852     0.63747      .   S
    C1273  O3852     0.63747      .   S
    C989   O3853     0.63620      .   S
    C1014  O3853     0.63620      .   S
    C989   O3854     0.63747      .   S
    C1013  O3854     0.63747      .   S
    C2094  O3855     0.63638      .   S
    C2119  O3855     0.63638      .   S
    C2094  O3856     0.63747      .   S
    C2118  O3856     0.63747      .   S
    C1921  O3857     0.94705      .   S
    C1885  O3857     0.94705      .   S
    C1271  O3858     0.94705      .   S
    C1235  O3858     0.94705      .   S
    C1011  O3859     0.94705      .   S
    C975   O3859     0.94705      .   S
    C1726  O3860     0.94705      .   S
    C1690  O3860     0.94705      .   S
    C2116  O3861     0.94705      .   S
    C2080  O3861     0.94705      .   S
    C1531  O3862     0.94705      .   S
    C1495  O3862     0.94705      .   S
    C1924  O3863     0.94412      .   S
    C3178  O3863     0.94412      .   S
    C1729  O3864     0.94435      .   S
    C3172  O3864     0.94435      .   S
    C1274  O3865     0.94412      .   S
    C3154  O3865     0.94412      .   S
    C1534  O3866     0.94437      .   S
    C3148  O3866     0.94437      .   S
    C2119  O3867     0.94437      .   S
    C3184  O3867     0.94437      .   S
    C1014  O3868     0.94435      .   S
    C3160  O3868     0.94435      .   S
    C325   O3869     0.95084      .   S
    C363   O3869     0.95084      .   S
    C325   O3870     0.94705      .   S
    C361   O3870     0.94705      .   S
    C2795  O3871     0.95084      .   S
    C2833  O3871     0.95084      .   S
    C2795  O3872     0.94705      .   S
    C2831  O3872     0.94705      .   S
    C520   O3873     0.95084      .   S
    C558   O3873     0.95084      .   S
    C520   O3874     0.94705      .   S
    C556   O3874     0.94705      .   S
    C130   O3875     0.95084      .   S
    C168   O3875     0.95084      .   S
    C130   O3876     0.94705      .   S
    C166   O3876     0.94705      .   S
    C2535  O3877     0.95084      .   S
    C2573  O3877     0.95084      .   S
    C2535  O3878     0.94705      .   S
    C2571  O3878     0.94705      .   S
    C3055  O3879     0.96649      .   S
    C3173  O3879     0.96649      .   S
    C3055  O3880     0.95084      .   S
    C3093  O3880     0.95084      .   S
    C3055  O3881     0.94705      .   S
    C3091  O3881     0.94705      .   S
    C1013  O3882     0.95084      .   S
    C975   O3882     0.95084      .   S
    C2118  O3883     0.95084      .   S
    C2080  O3883     0.95084      .   S
    C1533  O3884     0.95084      .   S
    C1495  O3884     0.95084      .   S
    C1923  O3885     0.95084      .   S
    C1885  O3885     0.95084      .   S
    C1273  O3886     0.95084      .   S
    C1235  O3886     0.95084      .   S
    C1728  O3887     0.95084      .   S
    C1690  O3887     0.95084      .   S
    C3178  O3888     0.96051      .   S
    C3179  O3888     0.96051      .   S
    C3178  O3889     0.94412      .   S
    C2834  O3889     0.94412      .   S
    C3178  O3890     0.92457      .   S
    C2842  O3890     0.92457      .   S
    C3148  O3891     0.96051      .   S
    C3149  O3891     0.96051      .   S
    C3148  O3892     0.94435      .   S
    C169   O3892     0.94435      .   S
    C3148  O3893     0.92444      .   S
    C177   O3893     0.92444      .   S
    C3149  O3894     0.96649      .   S
    C1495  O3894     0.96649      .   S
    C3154  O3895     0.96051      .   S
    C3155  O3895     0.96051      .   S
    C3154  O3896     0.94412      .   S
    C364   O3896     0.94412      .   S
    C3154  O3897     0.92457      .   S
    C372   O3897     0.92457      .   S
    C3179  O3898     0.96649      .   S
    C1885  O3898     0.96649      .   S
    C3173  O3899     0.96051      .   S
    C3172  O3899     0.96051      .   S
    C3172  O3900     0.94437      .   S
    C3094  O3900     0.94437      .   S
    C3172  O3901     0.92446      .   S
    C3102  O3901     0.92446      .   S
    C3184  O3902     0.96051      .   S
    C3185  O3902     0.96051      .   S
    C3184  O3903     0.94435      .   S
    C2574  O3903     0.94435      .   S
    C3184  O3904     0.92444      .   S
    C2582  O3904     0.92444      .   S
    C3185  O3905     0.96649      .   S
    C2080  O3905     0.96649      .   S
    C3161  O3906     0.96051      .   S
    C3160  O3906     0.96051      .   S
    C3161  O3907     0.96649      .   S
    C975   O3907     0.96649      .   S
    C3160  O3908     0.94437      .   S
    C559   O3908     0.94437      .   S
    C3160  O3909     0.92446      .   S
    C567   O3909     0.92446      .   S
    C3155  O3910     0.96649      .   S
    C1235  O3910     0.96649      .   S
    C168   O3911     0.63747      .   S
    C144   O3911     0.63747      .   S
    C3093  O3912     0.63747      .   S
    C3069  O3912     0.63747      .   S
    C2833  O3913     0.63747      .   S
    C2809  O3913     0.63747      .   S
    C363   O3914     0.63747      .   S
    C339   O3914     0.63747      .   S
    C558   O3915     0.63747      .   S
    C534   O3915     0.63747      .   S
    C2573  O3916     0.63747      .   S
    C2549  O3916     0.63747      .   S
    C2080  O3917     0.94994      .   S
    C2117  O3917     0.94994      .   S
    C2080  O3918     0.94636      .   S
    C2126  O3918     0.94636      .   S
    C1235  O3919     0.94970      .   S
    C1272  O3919     0.94970      .   S
    C1235  O3920     0.94636      .   S
    C1281  O3920     0.94636      .   S
    C1885  O3921     0.94970      .   S
    C1922  O3921     0.94970      .   S
    C1885  O3922     0.94636      .   S
    C1931  O3922     0.94636      .   S
    C1495  O3923     0.94994      .   S
    C1532  O3923     0.94994      .   S
    C1495  O3924     0.94636      .   S
    C1541  O3924     0.94636      .   S
    C1690  O3925     0.94974      .   S
    C1727  O3925     0.94974      .   S
    C1690  O3926     0.94636      .   S
    C1736  O3926     0.94636      .   S
    C975   O3927     0.94974      .   S
    C1012  O3927     0.94974      .   S
    C975   O3928     0.94636      .   S
    C1021  O3928     0.94636      .   S
    C169   O3929     0.63620      .   S
    C144   O3929     0.63620      .   S
    C3094  O3930     0.63638      .   S
    C3069  O3930     0.63638      .   S
    C364   O3931     0.63651      .   S
    C339   O3931     0.63651      .   S
    C559   O3932     0.63638      .   S
    C534   O3932     0.63638      .   S
    C2574  O3933     0.63620      .   S
    C2549  O3933     0.63620      .   S
    C2834  O3934     0.63651      .   S
    C2809  O3934     0.63651      .   S
    C2831  O3935     0.63699      .   S
    C2805  O3935     0.63699      .   S
    C166   O3936     0.63699      .   S
    C140   O3936     0.63699      .   S
    C556   O3937     0.63699      .   S
    C530   O3937     0.63699      .   S
    C2571  O3938     0.63699      .   S
    C2545  O3938     0.63699      .   S
    C361   O3939     0.63699      .   S
    C335   O3939     0.63699      .   S
    C3091  O3940     0.63699      .   S
    C3065  O3940     0.63699      .   S
    C339   O3941     0.75436      .   S
    C340   O3941     0.75436      .   S
    C534   O3942     0.75436      .   S
    C535   O3942     0.75436      .   S
    C144   O3943     0.75436      .   S
    C145   O3943     0.75436      .   S
    C2549  O3944     0.75436      .   S
    C2550  O3944     0.75436      .   S
    C2809  O3945     0.75436      .   S
    C2810  O3945     0.75436      .   S
    C3069  O3946     0.75436      .   S
    C3070  O3946     0.75436      .   S
    C575   O3947     0.54117      .   S
    C533   O3947     0.54117      .   S
    C2590  O3948     0.54117      .   S
    C2548  O3948     0.54117      .   S
    C380   O3949     0.54117      .   S
    C338   O3949     0.54117      .   S
    C185   O3950     0.54117      .   S
    C143   O3950     0.54117      .   S
    C3110  O3951     0.54117      .   S
    C3068  O3951     0.54117      .   S
    C2850  O3952     0.54117      .   S
    C2808  O3952     0.54117      .   S
    C1922  O3953     0.63776      .   S
    C2805  O3953     0.63776      .   S
    C1727  O3954     0.63754      .   S
    C3065  O3954     0.63754      .   S
    C2117  O3955     0.63746      .   S
    C2545  O3955     0.63746      .   S
    C1272  O3956     0.63776      .   S
    C335   O3956     0.63776      .   S
    C1532  O3957     0.63746      .   S
    C140   O3957     0.63746      .   S
    C1012  O3958     0.63754      .   S
    C530   O3958     0.63754      .   S
    C2582  O3959     0.63139      .   S
    C2107  O3959     0.63139      .   S
    C567   O3960     0.63139      .   S
    C1002  O3960     0.63139      .   S
    C2842  O3961     0.63139      .   S
    C1912  O3961     0.63139      .   S
    C372   O3962     0.63139      .   S
    C1262  O3962     0.63139      .   S
    C177   O3963     0.63139      .   S
    C1522  O3963     0.63139      .   S
    C3102  O3964     0.63139      .   S
    C1717  O3964     0.63139      .   S
    C535   O3965     0.70558      .   S
    C533   O3965     0.70558      .   S
    C535   O3966     0.70517      .   S
    C539   O3966     0.70517      .   S
    C2810  O3967     0.70544      .   S
    C2808  O3967     0.70544      .   S
    C2810  O3968     0.70517      .   S
    C2814  O3968     0.70517      .   S
    C2550  O3969     0.70575      .   S
    C2548  O3969     0.70575      .   S
    C2550  O3970     0.70517      .   S
    C2554  O3970     0.70517      .   S
    C340   O3971     0.70544      .   S
    C338   O3971     0.70544      .   S
    C340   O3972     0.70517      .   S
    C344   O3972     0.70517      .   S
    C3070  O3973     0.70558      .   S
    C3068  O3973     0.70558      .   S
    C3070  O3974     0.70517      .   S
    C3074  O3974     0.70517      .   S
    C145   O3975     0.70575      .   S
    C143   O3975     0.70575      .   S
    C145   O3976     0.70517      .   S
    C149   O3976     0.70517      .   S
    C335   O3977     0.75550      .   S
    C336   O3977     0.75550      .   S
    C3065  O3978     0.75548      .   S
    C3066  O3978     0.75548      .   S
    C530   O3979     0.75548      .   S
    C531   O3979     0.75548      .   S
    C2805  O3980     0.75550      .   S
    C2806  O3980     0.75550      .   S
    C2545  O3981     0.75566      .   S
    C2546  O3981     0.75566      .   S
    C140   O3982     0.75566      .   S
    C141   O3982     0.75566      .   S
    C533   O3983     0.70600      .   S
    C536   O3983     0.70600      .   S
    C2548  O3984     0.70600      .   S
    C2551  O3984     0.70600      .   S
    C338   O3985     0.70600      .   S
    C341   O3985     0.70600      .   S
    C143   O3986     0.70600      .   S
    C146   O3986     0.70600      .   S
    C3068  O3987     0.70600      .   S
    C3071  O3987     0.70600      .   S
    C2808  O3988     0.70600      .   S
    C2811  O3988     0.70600      .   S
    C187   O3989     0.54112      .   S
    C149   O3989     0.54112      .   S
    C577   O3990     0.54131      .   S
    C539   O3990     0.54131      .   S
    C2852  O3991     0.54143      .   S
    C2814  O3991     0.54143      .   S
    C2592  O3992     0.54112      .   S
    C2554  O3992     0.54112      .   S
    C382   O3993     0.54143      .   S
    C344   O3993     0.54143      .   S
    C3112  O3994     0.54131      .   S
    C3074  O3994     0.54131      .   S
    C2126  O3995     0.63606      .   S
    C2107  O3995     0.63606      .   S
    C1281  O3996     0.63614      .   S
    C1262  O3996     0.63614      .   S
    C1541  O3997     0.63606      .   S
    C1522  O3997     0.63606      .   S
    C1736  O3998     0.63636      .   S
    C1717  O3998     0.63636      .   S
    C1021  O3999     0.63636      .   S
    C1002  O3999     0.63636      .   S
    C1931  O4000     0.63614      .   S
    C1912  O4000     0.63614      .   S
    C3074  O4001     0.70324      .   S
    C3075  O4001     0.70324      .   S
    C149   O4002     0.70324      .   S
    C150   O4002     0.70324      .   S
    C539   O4003     0.70324      .   S
    C540   O4003     0.70324      .   S
    C2554  O4004     0.70324      .   S
    C2555  O4004     0.70324      .   S
    C2814  O4005     0.70324      .   S
    C2815  O4005     0.70324      .   S
    C344   O4006     0.70324      .   S
    C345   O4006     0.70324      .   S
    C183   O4007     0.54151      .   S
    C139   O4007     0.54151      .   S
    C2588  O4008     0.54151      .   S
    C2544  O4008     0.54151      .   S
    C573   O4009     0.54143      .   S
    C529   O4009     0.54143      .   S
    C378   O4010     0.54166      .   S
    C334   O4010     0.54166      .   S
    C2848  O4011     0.54166      .   S
    C2804  O4011     0.54166      .   S
    C3108  O4012     0.54143      .   S
    C3064  O4012     0.54143      .   S
    C1912  O4013     0.74063      .   S
    C613   O4013     0.74063      .   S
    C1262  O4014     0.74063      .   S
    C3018  O4014     0.74063      .   S
    C1522  O4015     0.74077      .   S
    C2498  O4015     0.74077      .   S
    C2107  O4016     0.74077      .   S
    C223   O4016     0.74077      .   S
    C1717  O4017     0.74064      .   S
    C288   O4017     0.74064      .   S
    C1002  O4018     0.74064      .   S
    C2758  O4018     0.74064      .   S
    C536   O4019     0.54146      .   S
    C576   O4019     0.54146      .   S
    C536   O4020     0.70551      .   S
    C538   O4020     0.70551      .   S
    C3071  O4021     0.54146      .   S
    C3111  O4021     0.54146      .   S
    C3071  O4022     0.70551      .   S
    C3073  O4022     0.70551      .   S
    C146   O4023     0.54109      .   S
    C186   O4023     0.54109      .   S
    C146   O4024     0.70580      .   S
    C148   O4024     0.70580      .   S
    C2811  O4025     0.54171      .   S
    C2851  O4025     0.54171      .   S
    C2811  O4026     0.70565      .   S
    C2813  O4026     0.70565      .   S
    C2551  O4027     0.54109      .   S
    C2591  O4027     0.54109      .   S
    C2551  O4028     0.70580      .   S
    C2553  O4028     0.70580      .   S
    C341   O4029     0.54171      .   S
    C381   O4029     0.54171      .   S
    C341   O4030     0.70565      .   S
    C343   O4030     0.70565      .   S
    C2546  O4031     0.70534      .   S
    C2544  O4031     0.70534      .   S
    C2546  O4032     0.70570      .   S
    C2547  O4032     0.70570      .   S
    C141   O4033     0.70534      .   S
    C139   O4033     0.70534      .   S
    C141   O4034     0.70570      .   S
    C142   O4034     0.70570      .   S
    C2806  O4035     0.70564      .   S
    C2804  O4035     0.70564      .   S
    C2806  O4036     0.70557      .   S
    C2807  O4036     0.70557      .   S
    C531   O4037     0.70542      .   S
    C529   O4037     0.70542      .   S
    C531   O4038     0.70579      .   S
    C532   O4038     0.70579      .   S
    C336   O4039     0.70564      .   S
    C334   O4039     0.70564      .   S
    C336   O4040     0.70557      .   S
    C337   O4040     0.70557      .   S
    C3066  O4041     0.70542      .   S
    C3064  O4041     0.70542      .   S
    C3066  O4042     0.70579      .   S
    C3067  O4042     0.70579      .   S
    C2815  O4043     0.70505      .   S
    C2813  O4043     0.70505      .   S
    C2815  O4044     0.54132      .   S
    C2853  O4044     0.54132      .   S
    C3075  O4045     0.70505      .   S
    C3073  O4045     0.70505      .   S
    C3075  O4046     0.54145      .   S
    C3113  O4046     0.54145      .   S
    C2555  O4047     0.70505      .   S
    C2553  O4047     0.70505      .   S
    C2555  O4048     0.54115      .   S
    C2593  O4048     0.54115      .   S
    C345   O4049     0.70505      .   S
    C343   O4049     0.70505      .   S
    C345   O4050     0.54132      .   S
    C383   O4050     0.54132      .   S
    C540   O4051     0.70505      .   S
    C538   O4051     0.70505      .   S
    C540   O4052     0.54145      .   S
    C578   O4052     0.54145      .   S
    C150   O4053     0.70505      .   S
    C148   O4053     0.70505      .   S
    C150   O4054     0.54115      .   S
    C188   O4054     0.54115      .   S
    C529   O4055     0.70475      .   S
    C2739  O4055     0.70475      .   S
    C2804  O4056     0.70475      .   S
    C594   O4056     0.70475      .   S
    C139   O4057     0.70475      .   S
    C2479  O4057     0.70475      .   S
    C2544  O4058     0.70475      .   S
    C204   O4058     0.70475      .   S
    C334   O4059     0.70475      .   S
    C2999  O4059     0.70475      .   S
    C3064  O4060     0.70475      .   S
    C269   O4060     0.70475      .   S
    C3073  O4061     0.75417      .   S
    C3072  O4061     0.75417      .   S
    C2553  O4062     0.75417      .   S
    C2552  O4062     0.75417      .   S
    C2813  O4063     0.75417      .   S
    C2812  O4063     0.75417      .   S
    C343   O4064     0.75417      .   S
    C342   O4064     0.75417      .   S
    C538   O4065     0.75417      .   S
    C537   O4065     0.75417      .   S
    C148   O4066     0.75417      .   S
    C147   O4066     0.75417      .   S
    C2534  O4067     0.54145      .   S
    C2500  O4067     0.54145      .   S
    C259   O4068     0.54145      .   S
    C225   O4068     0.54145      .   S
    C649   O4069     0.54144      .   S
    C615   O4069     0.54144      .   S
    C324   O4070     0.54163      .   S
    C290   O4070     0.54163      .   S
    C2794  O4071     0.54163      .   S
    C2760  O4071     0.54163      .   S
    C3054  O4072     0.54144      .   S
    C3020  O4072     0.54144      .   S
    C2758  O4073     0.70409      .   S
    C2760  O4073     0.70409      .   S
    C2758  O4074     0.70213      .   S
    C2756  O4074     0.70213      .   S
    C3018  O4075     0.70428      .   S
    C3020  O4075     0.70428      .   S
    C3018  O4076     0.70213      .   S
    C3016  O4076     0.70213      .   S
    C288   O4077     0.70409      .   S
    C290   O4077     0.70409      .   S
    C288   O4078     0.70213      .   S
    C286   O4078     0.70213      .   S
    C223   O4079     0.70439      .   S
    C225   O4079     0.70439      .   S
    C223   O4080     0.70213      .   S
    C221   O4080     0.70213      .   S
    C613   O4081     0.70428      .   S
    C615   O4081     0.70428      .   S
    C613   O4082     0.70213      .   S
    C611   O4082     0.70213      .   S
    C2498  O4083     0.70439      .   S
    C2500  O4083     0.70439      .   S
    C2498  O4084     0.70213      .   S
    C2496  O4084     0.70213      .   S
    C379   O4085     0.54126      .   S
    C337   O4085     0.54126      .   S
    C184   O4086     0.54126      .   S
    C142   O4086     0.54126      .   S
    C2589  O4087     0.54126      .   S
    C2547  O4087     0.54126      .   S
    C574   O4088     0.54126      .   S
    C532   O4088     0.54126      .   S
    C2849  O4089     0.54126      .   S
    C2807  O4089     0.54126      .   S
    C3109  O4090     0.54126      .   S
    C3067  O4090     0.54126      .   S
    C142   O4091     0.70538      .   S
    C2482  O4091     0.70538      .   S
    C337   O4092     0.70538      .   S
    C3002  O4092     0.70538      .   S
    C3067  O4093     0.70538      .   S
    C272   O4093     0.70538      .   S
    C2547  O4094     0.70538      .   S
    C207   O4094     0.70538      .   S
    C532   O4095     0.70538      .   S
    C2742  O4095     0.70538      .   S
    C2807  O4096     0.70538      .   S
    C597   O4096     0.70538      .   S
    C3020  O4097     0.69514      .   S
    C3019  O4097     0.69514      .   S
    C615   O4098     0.69514      .   S
    C614   O4098     0.69514      .   S
    C2760  O4099     0.69514      .   S
    C2759  O4099     0.69514      .   S
    C2500  O4100     0.69514      .   S
    C2499  O4100     0.69514      .   S
    C225   O4101     0.69514      .   S
    C224   O4101     0.69514      .   S
    C290   O4102     0.69514      .   S
    C289   O4102     0.69514      .   S
    C342   O4103     0.63735      .   S
    C365   O4103     0.63735      .   S
    C342   O4104     0.63626      .   S
    C366   O4104     0.63626      .   S
    C147   O4105     0.63735      .   S
    C170   O4105     0.63735      .   S
    C147   O4106     0.63643      .   S
    C171   O4106     0.63643      .   S
    C3072  O4107     0.63735      .   S
    C3095  O4107     0.63735      .   S
    C3072  O4108     0.63614      .   S
    C3096  O4108     0.63614      .   S
    C537   O4109     0.63735      .   S
    C560   O4109     0.63735      .   S
    C537   O4110     0.63614      .   S
    C561   O4110     0.63614      .   S
    C2812  O4111     0.63735      .   S
    C2835  O4111     0.63735      .   S
    C2812  O4112     0.63626      .   S
    C2836  O4112     0.63626      .   S
    C2552  O4113     0.63735      .   S
    C2575  O4113     0.63735      .   S
    C2552  O4114     0.63643      .   S
    C2576  O4114     0.63643      .   S
    C2835  O4115     0.94911      .   S
    C3200  O4115     0.94911      .   S
    C560   O4116     0.94911      .   S
    C3200  O4116     0.94911      .   S
    C3095  O4117     0.94911      .   S
    C3196  O4117     0.94911      .   S
    C2575  O4118     0.94911      .   S
    C3194  O4118     0.94911      .   S
    C365   O4119     0.94911      .   S
    C3196  O4119     0.94911      .   S
    C170   O4120     0.94911      .   S
    C3194  O4120     0.94911      .   S
    C2479  O4121     0.54136      .   S
    C2523  O4121     0.54136      .   S
    C2479  O4122     0.70550      .   S
    C2481  O4122     0.70550      .   S
    C204   O4123     0.54136      .   S
    C248   O4123     0.54136      .   S
    C204   O4124     0.70550      .   S
    C206   O4124     0.70550      .   S
    C269   O4125     0.54143      .   S
    C313   O4125     0.54143      .   S
    C269   O4126     0.70542      .   S
    C271   O4126     0.70542      .   S
    C2999  O4127     0.54166      .   S
    C3043  O4127     0.54166      .   S
    C2999  O4128     0.70564      .   S
    C3001  O4128     0.70564      .   S
    C594   O4129     0.54166      .   S
    C638   O4129     0.54166      .   S
    C594   O4130     0.70564      .   S
    C596   O4130     0.70564      .   S
    C2739  O4131     0.54143      .   S
    C2783  O4131     0.54143      .   S
    C2739  O4132     0.70542      .   S
    C2741  O4132     0.70542      .   S
    C2836  O4133     0.94461      .   S
    C3224  O4133     0.94461      .   S
    C561   O4134     0.94483      .   S
    C3224  O4134     0.94483      .   S
    C171   O4135     0.94466      .   S
    C3218  O4135     0.94466      .   S
    C2576  O4136     0.94466      .   S
    C3218  O4136     0.94466      .   S
    C3096  O4137     0.94483      .   S
    C3221  O4137     0.94483      .   S
    C366   O4138     0.94461      .   S
    C3221  O4138     0.94461      .   S
    C2792  O4139     0.54137      .   S
    C2756  O4139     0.54137      .   S
    C322   O4140     0.54137      .   S
    C286   O4140     0.54137      .   S
    C257   O4141     0.54167      .   S
    C221   O4141     0.54167      .   S
    C2532  O4142     0.54167      .   S
    C2496  O4142     0.54167      .   S
    C647   O4143     0.54157      .   S
    C611   O4143     0.54157      .   S
    C3052  O4144     0.54157      .   S
    C3016  O4144     0.54157      .   S
    C611   O4145     0.70119      .   S
    C608   O4145     0.70119      .   S
    C221   O4146     0.70119      .   S
    C218   O4146     0.70119      .   S
    C2496  O4147     0.70119      .   S
    C2493  O4147     0.70119      .   S
    C3016  O4148     0.70119      .   S
    C3013  O4148     0.70119      .   S
    C2756  O4149     0.70119      .   S
    C2753  O4149     0.70119      .   S
    C286   O4150     0.70119      .   S
    C283   O4150     0.70119      .   S
    C3002  O4151     0.70557      .   S
    C3001  O4151     0.70557      .   S
    C3002  O4152     0.54126      .   S
    C3044  O4152     0.54126      .   S
    C597   O4153     0.70557      .   S
    C596   O4153     0.70557      .   S
    C597   O4154     0.54126      .   S
    C639   O4154     0.54126      .   S
    C2482  O4155     0.70587      .   S
    C2481  O4155     0.70587      .   S
    C2482  O4156     0.54126      .   S
    C2524  O4156     0.54126      .   S
    C272   O4157     0.70579      .   S
    C271   O4157     0.70579      .   S
    C272   O4158     0.54126      .   S
    C314   O4158     0.54126      .   S
    C207   O4159     0.70587      .   S
    C206   O4159     0.70587      .   S
    C207   O4160     0.54126      .   S
    C249   O4160     0.54126      .   S
    C2742  O4161     0.70579      .   S
    C2741  O4161     0.70579      .   S
    C2742  O4162     0.54126      .   S
    C2784  O4162     0.54126      .   S
    C289   O4163     0.54177      .   S
    C323   O4163     0.54177      .   S
    C289   O4164     0.70038      .   S
    C285   O4164     0.70038      .   S
    C2759  O4165     0.54177      .   S
    C2793  O4165     0.54177      .   S
    C2759  O4166     0.70038      .   S
    C2755  O4166     0.70038      .   S
    C3019  O4167     0.54156      .   S
    C3053  O4167     0.54156      .   S
    C3019  O4168     0.70057      .   S
    C3015  O4168     0.70057      .   S
    C614   O4169     0.54156      .   S
    C648   O4169     0.54156      .   S
    C614   O4170     0.70057      .   S
    C610   O4170     0.70057      .   S
    C2499  O4171     0.54146      .   S
    C2533  O4171     0.54146      .   S
    C2499  O4172     0.70056      .   S
    C2495  O4172     0.70056      .   S
    C224   O4173     0.54146      .   S
    C258   O4173     0.54146      .   S
    C224   O4174     0.70056      .   S
    C220   O4174     0.70056      .   S
    C206   O4175     0.75535      .   S
    C205   O4175     0.75535      .   S
    C2481  O4176     0.75535      .   S
    C2480  O4176     0.75535      .   S
    C3001  O4177     0.75550      .   S
    C3000  O4177     0.75550      .   S
    C2741  O4178     0.75548      .   S
    C2740  O4178     0.75548      .   S
    C271   O4179     0.75548      .   S
    C270   O4179     0.75548      .   S
    C596   O4180     0.75550      .   S
    C595   O4180     0.75550      .   S
    C3200  O4181     0.94911      .   S
    C625   O4181     0.94911      .   S
    C3200  O4182     0.94911      .   S
    C2770  O4182     0.94911      .   S
    C3194  O4183     0.94911      .   S
    C235   O4183     0.94911      .   S
    C3194  O4184     0.94911      .   S
    C2510  O4184     0.94911      .   S
    C3196  O4185     0.94911      .   S
    C3030  O4185     0.94911      .   S
    C3196  O4186     0.94911      .   S
    C300   O4186     0.94911      .   S
    C3224  O4187     0.96312      .   S
    C3201  O4187     0.96312      .   S
    C3224  O4188     0.94522      .   S
    C2838  O4188     0.94522      .   S
    C3224  O4189     0.94522      .   S
    C563   O4189     0.94522      .   S
    C3218  O4190     0.96312      .   S
    C3195  O4190     0.96312      .   S
    C3218  O4191     0.94522      .   S
    C173   O4191     0.94522      .   S
    C3218  O4192     0.94522      .   S
    C2578  O4192     0.94522      .   S
    C3221  O4193     0.96312      .   S
    C3197  O4193     0.96312      .   S
    C3221  O4194     0.94522      .   S
    C3098  O4194     0.94522      .   S
    C3221  O4195     0.94522      .   S
    C368   O4195     0.94522      .   S
    C3013  O4196     0.70508      .   S
    C3015  O4196     0.70508      .   S
    C3013  O4197     0.54140      .   S
    C3051  O4197     0.54140      .   S
    C218   O4198     0.70508      .   S
    C220   O4198     0.70508      .   S
    C218   O4199     0.54140      .   S
    C256   O4199     0.54140      .   S
    C283   O4200     0.70508      .   S
    C285   O4200     0.70508      .   S
    C283   O4201     0.54159      .   S
    C321   O4201     0.54159      .   S
    C2493  O4202     0.70508      .   S
    C2495  O4202     0.70508      .   S
    C2493  O4203     0.54140      .   S
    C2531  O4203     0.54140      .   S
    C608   O4204     0.70508      .   S
    C610   O4204     0.70508      .   S
    C608   O4205     0.54140      .   S
    C646   O4205     0.54140      .   S
    C2753  O4206     0.70508      .   S
    C2755  O4206     0.70508      .   S
    C2753  O4207     0.54159      .   S
    C2791  O4207     0.54159      .   S
    C2786  O4208     0.54146      .   S
    C2746  O4208     0.54146      .   S
    C641   O4209     0.54171      .   S
    C601   O4209     0.54171      .   S
    C251   O4210     0.54149      .   S
    C211   O4210     0.54149      .   S
    C2526  O4211     0.54149      .   S
    C2486  O4211     0.54149      .   S
    C3046  O4212     0.54171      .   S
    C3006  O4212     0.54171      .   S
    C316   O4213     0.54146      .   S
    C276   O4213     0.54146      .   S
    C2495  O4214     0.73985      .   S
    C2494  O4214     0.73985      .   S
    C3015  O4215     0.73985      .   S
    C3014  O4215     0.73985      .   S
    C220   O4216     0.73985      .   S
    C219   O4216     0.73985      .   S
    C285   O4217     0.73985      .   S
    C284   O4217     0.73985      .   S
    C610   O4218     0.73985      .   S
    C609   O4218     0.73985      .   S
    C2755  O4219     0.73985      .   S
    C2754  O4219     0.73985      .   S
    C235   O4220     0.63735      .   S
    C212   O4220     0.63735      .   S
    C2510  O4221     0.63735      .   S
    C2487  O4221     0.63735      .   S
    C3030  O4222     0.63735      .   S
    C3007  O4222     0.63735      .   S
    C300   O4223     0.63735      .   S
    C277   O4223     0.63735      .   S
    C625   O4224     0.63735      .   S
    C602   O4224     0.63735      .   S
    C2770  O4225     0.63735      .   S
    C2747  O4225     0.63735      .   S
    C3197  O4226     0.96312      .   S
    C3220  O4226     0.96312      .   S
    C3195  O4227     0.96312      .   S
    C3219  O4227     0.96312      .   S
    C3201  O4228     0.96312      .   S
    C3225  O4228     0.96312      .   S
    C2740  O4229     0.63699      .   S
    C2766  O4229     0.63699      .   S
    C2740  O4230     0.63754      .   S
    C1987  O4230     0.63754      .   S
    C270   O4231     0.63699      .   S
    C296   O4231     0.63699      .   S
    C270   O4232     0.63754      .   S
    C1077  O4232     0.63754      .   S
    C3000  O4233     0.63699      .   S
    C3026  O4233     0.63699      .   S
    C3000  O4234     0.63776      .   S
    C1662  O4234     0.63776      .   S
    C205   O4235     0.63699      .   S
    C231   O4235     0.63699      .   S
    C205   O4236     0.63761      .   S
    C1337  O4236     0.63761      .   S
    C2480  O4237     0.63699      .   S
    C2506  O4237     0.63699      .   S
    C2480  O4238     0.63761      .   S
    C2312  O4238     0.63761      .   S
    C595   O4239     0.63699      .   S
    C621   O4239     0.63699      .   S
    C595   O4240     0.63776      .   S
    C817   O4240     0.63776      .   S
    C2785  O4241     0.54117      .   S
    C2743  O4241     0.54117      .   S
    C315   O4242     0.54117      .   S
    C273   O4242     0.54117      .   S
    C2525  O4243     0.54117      .   S
    C2483  O4243     0.54117      .   S
    C3045  O4244     0.54117      .   S
    C3003  O4244     0.54117      .   S
    C250   O4245     0.54117      .   S
    C208   O4245     0.54117      .   S
    C640   O4246     0.54117      .   S
    C598   O4246     0.54117      .   S
    C296   O4247     0.94705      .   S
    C260   O4247     0.94705      .   S
    C621   O4248     0.94705      .   S
    C585   O4248     0.94705      .   S
    C2766  O4249     0.94705      .   S
    C2730  O4249     0.94705      .   S
    C2506  O4250     0.94705      .   S
    C2470  O4250     0.94705      .   S
    C231   O4251     0.94705      .   S
    C195   O4251     0.94705      .   S
    C3026  O4252     0.94705      .   S
    C2990  O4252     0.94705      .   S
    C3115  O4253     0.54154      .   S
    C3077  O4253     0.54154      .   S
    C385   O4254     0.54154      .   S
    C347   O4254     0.54154      .   S
    C2855  O4255     0.54154      .   S
    C2817  O4255     0.54154      .   S
    C190   O4256     0.54154      .   S
    C152   O4256     0.54154      .   S
    C580   O4257     0.54154      .   S
    C542   O4257     0.54154      .   S
    C2595  O4258     0.54154      .   S
    C2557  O4258     0.54154      .   S
    C2838  O4259     0.63651      .   S
    C3337  O4259     0.63651      .   S
    C173   O4260     0.63651      .   S
    C3267  O4260     0.63651      .   S
    C2578  O4261     0.63651      .   S
    C3277  O4261     0.63651      .   S
    C3098  O4262     0.63651      .   S
    C3287  O4262     0.63651      .   S
    C368   O4263     0.63651      .   S
    C3297  O4263     0.63651      .   S
    C563   O4264     0.63651      .   S
    C3327  O4264     0.63651      .   S
    C2746  O4265     0.70600      .   S
    C2743  O4265     0.70600      .   S
    C2746  O4266     0.70551      .   S
    C2748  O4266     0.70551      .   S
    C2486  O4267     0.70600      .   S
    C2483  O4267     0.70600      .   S
    C2486  O4268     0.70575      .   S
    C2488  O4268     0.70575      .   S
    C3006  O4269     0.70600      .   S
    C3003  O4269     0.70600      .   S
    C3006  O4270     0.70565      .   S
    C3008  O4270     0.70565      .   S
    C601   O4271     0.70600      .   S
    C598   O4271     0.70600      .   S
    C601   O4272     0.70565      .   S
    C603   O4272     0.70565      .   S
    C211   O4273     0.70600      .   S
    C208   O4273     0.70600      .   S
    C211   O4274     0.70575      .   S
    C213   O4274     0.70575      .   S
    C276   O4275     0.70600      .   S
    C273   O4275     0.70600      .   S
    C276   O4276     0.70551      .   S
    C278   O4276     0.70551      .   S
    C2743  O4277     0.70558      .   S
    C2745  O4277     0.70558      .   S
    C3003  O4278     0.70544      .   S
    C3005  O4278     0.70544      .   S
    C2483  O4279     0.70555      .   S
    C2485  O4279     0.70555      .   S
    C273   O4280     0.70558      .   S
    C275   O4280     0.70558      .   S
    C208   O4281     0.70555      .   S
    C210   O4281     0.70555      .   S
    C598   O4282     0.70544      .   S
    C600   O4282     0.70544      .   S
    C1337  O4283     0.94964      .   S
    C1300  O4283     0.94964      .   S
    C1077  O4284     0.94974      .   S
    C1040  O4284     0.94974      .   S
    C1987  O4285     0.94974      .   S
    C1950  O4285     0.94974      .   S
    C817   O4286     0.94970      .   S
    C780   O4286     0.94970      .   S
    C1662  O4287     0.94970      .   S
    C1625  O4287     0.94970      .   S
    C2312  O4288     0.94964      .   S
    C2275  O4288     0.94964      .   S
    C1679  O4289     0.54126      .   S
    C1637  O4289     0.54126      .   S
    C2329  O4290     0.54126      .   S
    C2287  O4290     0.54126      .   S
    C1094  O4291     0.54126      .   S
    C1052  O4291     0.54126      .   S
    C2004  O4292     0.54126      .   S
    C1962  O4292     0.54126      .   S
    C1354  O4293     0.54126      .   S
    C1312  O4293     0.54126      .   S
    C834   O4294     0.54126      .   S
    C792   O4294     0.54126      .   S
    C2487  O4295     0.75417      .   S
    C2488  O4295     0.75417      .   S
    C2487  O4296     0.63637      .   S
    C2511  O4296     0.63637      .   S
    C3007  O4297     0.75417      .   S
    C3008  O4297     0.75417      .   S
    C3007  O4298     0.63626      .   S
    C3031  O4298     0.63626      .   S
    C2747  O4299     0.75417      .   S
    C2748  O4299     0.75417      .   S
    C2747  O4300     0.63614      .   S
    C2771  O4300     0.63614      .   S
    C277   O4301     0.75417      .   S
    C278   O4301     0.75417      .   S
    C277   O4302     0.63614      .   S
    C301   O4302     0.63614      .   S
    C602   O4303     0.75417      .   S
    C603   O4303     0.75417      .   S
    C602   O4304     0.63626      .   S
    C626   O4304     0.63626      .   S
    C212   O4305     0.75417      .   S
    C213   O4305     0.75417      .   S
    C212   O4306     0.63637      .   S
    C236   O4306     0.63637      .   S
    C2594  O4307     0.54130      .   S
    C2556  O4307     0.54130      .   S
    C384   O4308     0.54130      .   S
    C346   O4308     0.54130      .   S
    C2854  O4309     0.54130      .   S
    C2816  O4309     0.54130      .   S
    C579   O4310     0.54130      .   S
    C541   O4310     0.54130      .   S
    C189   O4311     0.54130      .   S
    C151   O4311     0.54130      .   S
    C3114  O4312     0.54130      .   S
    C3076  O4312     0.54130      .   S
    C3014  O4313     0.63522      .   S
    C370   O4313     0.63522      .   S
    C3014  O4314     0.63341      .   S
    C3034  O4314     0.63341      .   S
    C284   O4315     0.63497      .   S
    C3100  O4315     0.63497      .   S
    C284   O4316     0.63319      .   S
    C304   O4316     0.63319      .   S
    C609   O4317     0.63522      .   S
    C2840  O4317     0.63522      .   S
    C609   O4318     0.63341      .   S
    C629   O4318     0.63341      .   S
    C219   O4319     0.63525      .   S
    C2580  O4319     0.63525      .   S
    C219   O4320     0.63336      .   S
    C239   O4320     0.63336      .   S
    C2494  O4321     0.63525      .   S
    C175   O4321     0.63525      .   S
    C2494  O4322     0.63336      .   S
    C2514  O4322     0.63336      .   S
    C2754  O4323     0.63497      .   S
    C565   O4323     0.63497      .   S
    C2754  O4324     0.63319      .   S
    C2774  O4324     0.63319      .   S
    C3077  O4325     0.70347      .   S
    C3076  O4325     0.70347      .   S
    C3077  O4326     0.70659      .   S
    C3288  O4326     0.70659      .   S
    C347   O4327     0.70347      .   S
    C346   O4327     0.70347      .   S
    C347   O4328     0.70659      .   S
    C3298  O4328     0.70659      .   S
    C2817  O4329     0.70347      .   S
    C2816  O4329     0.70347      .   S
    C2817  O4330     0.70659      .   S
    C3338  O4330     0.70659      .   S
    C542   O4331     0.70347      .   S
    C541   O4331     0.70347      .   S
    C542   O4332     0.70659      .   S
    C3328  O4332     0.70659      .   S
    C152   O4333     0.70347      .   S
    C151   O4333     0.70347      .   S
    C152   O4334     0.70659      .   S
    C3268  O4334     0.70659      .   S
    C2557  O4335     0.70347      .   S
    C2556  O4335     0.70347      .   S
    C2557  O4336     0.70659      .   S
    C3278  O4336     0.70659      .   S
    C1637  O4337     0.70538      .   S
    C792   O4337     0.70538      .   S
    C1637  O4338     0.70557      .   S
    C1636  O4338     0.70557      .   S
    C792   O4339     0.70557      .   S
    C791   O4339     0.70557      .   S
    C1052  O4340     0.70538      .   S
    C2287  O4340     0.70538      .   S
    C1052  O4341     0.70570      .   S
    C1051  O4341     0.70570      .   S
    C1962  O4342     0.70538      .   S
    C1312  O4342     0.70538      .   S
    C1962  O4343     0.70570      .   S
    C1961  O4343     0.70570      .   S
    C1312  O4344     0.70587      .   S
    C1311  O4344     0.70587      .   S
    C2287  O4345     0.70587      .   S
    C2286  O4345     0.70587      .   S
    C2580  O4346     0.93616      .   S
    C2536  O4346     0.93616      .   S
    C2840  O4347     0.93629      .   S
    C2796  O4347     0.93629      .   S
    C565   O4348     0.93653      .   S
    C521   O4348     0.93653      .   S
    C3100  O4349     0.93653      .   S
    C3056  O4349     0.93653      .   S
    C370   O4350     0.93629      .   S
    C326   O4350     0.93629      .   S
    C175   O4351     0.93616      .   S
    C131   O4351     0.93616      .   S
    C2748  O4352     0.70505      .   S
    C2750  O4352     0.70505      .   S
    C278   O4353     0.70505      .   S
    C280   O4353     0.70505      .   S
    C3008  O4354     0.70505      .   S
    C3010  O4354     0.70505      .   S
    C213   O4355     0.70505      .   S
    C215   O4355     0.70505      .   S
    C603   O4356     0.70505      .   S
    C605   O4356     0.70505      .   S
    C2488  O4357     0.70505      .   S
    C2490  O4357     0.70505      .   S
    C3287  O4358     0.71274      .   S
    C3288  O4358     0.71274      .   S
    C3287  O4359     0.63651      .   S
    C303   O4359     0.63651      .   S
    C3327  O4360     0.71274      .   S
    C3328  O4360     0.71274      .   S
    C3327  O4361     0.63651      .   S
    C2773  O4361     0.63651      .   S
    C3297  O4362     0.71274      .   S
    C3298  O4362     0.71274      .   S
    C3297  O4363     0.63651      .   S
    C3033  O4363     0.63651      .   S
    C3337  O4364     0.71274      .   S
    C3338  O4364     0.71274      .   S
    C3337  O4365     0.63651      .   S
    C628   O4365     0.63651      .   S
    C3267  O4366     0.71274      .   S
    C3268  O4366     0.71274      .   S
    C3267  O4367     0.63651      .   S
    C2513  O4367     0.63651      .   S
    C3277  O4368     0.71274      .   S
    C3278  O4368     0.71274      .   S
    C3277  O4369     0.63651      .   S
    C238   O4369     0.63651      .   S
    C2507  O4370     0.94964      .   S
    C2470  O4370     0.94964      .   S
    C2507  O4371     0.63761      .   S
    C2285  O4371     0.63761      .   S
    C297   O4372     0.94994      .   S
    C260   O4372     0.94994      .   S
    C297   O4373     0.63746      .   S
    C1050  O4373     0.63746      .   S
    C622   O4374     0.94970      .   S
    C585   O4374     0.94970      .   S
    C622   O4375     0.63776      .   S
    C790   O4375     0.63776      .   S
    C232   O4376     0.94964      .   S
    C195   O4376     0.94964      .   S
    C232   O4377     0.63761      .   S
    C1310  O4377     0.63761      .   S
    C2767  O4378     0.94994      .   S
    C2730  O4378     0.94994      .   S
    C2767  O4379     0.63746      .   S
    C1960  O4379     0.63746      .   S
    C3027  O4380     0.94970      .   S
    C2990  O4380     0.94970      .   S
    C3027  O4381     0.63776      .   S
    C1635  O4381     0.63776      .   S
    C2470  O4382     0.95084      .   S
    C2508  O4382     0.95084      .   S
    C2470  O4383     0.94636      .   S
    C2516  O4383     0.94636      .   S
    C585   O4384     0.95084      .   S
    C623   O4384     0.95084      .   S
    C585   O4385     0.94636      .   S
    C631   O4385     0.94636      .   S
    C2990  O4386     0.95084      .   S
    C3028  O4386     0.95084      .   S
    C2990  O4387     0.94636      .   S
    C3036  O4387     0.94636      .   S
    C195   O4388     0.95084      .   S
    C233   O4388     0.95084      .   S
    C195   O4389     0.94636      .   S
    C241   O4389     0.94636      .   S
    C195   O4390     0.96649      .   S
    C3151  O4390     0.96649      .   S
    C2730  O4391     0.95084      .   S
    C2768  O4391     0.95084      .   S
    C2730  O4392     0.94636      .   S
    C2776  O4392     0.94636      .   S
    C2730  O4393     0.96649      .   S
    C3181  O4393     0.96649      .   S
    C260   O4394     0.95084      .   S
    C298   O4394     0.95084      .   S
    C260   O4395     0.94636      .   S
    C306   O4395     0.94636      .   S
    C260   O4396     0.96649      .   S
    C3153  O4396     0.96649      .   S
    C298   O4397     0.63747      .   S
    C274   O4397     0.63747      .   S
    C233   O4398     0.63747      .   S
    C209   O4398     0.63747      .   S
    C623   O4399     0.63747      .   S
    C599   O4399     0.63747      .   S
    C2508  O4400     0.63747      .   S
    C2484  O4400     0.63747      .   S
    C3028  O4401     0.63747      .   S
    C3004  O4401     0.63747      .   S
    C2768  O4402     0.63747      .   S
    C2744  O4402     0.63747      .   S
    C3076  O4403     0.70448      .   S
    C3286  O4403     0.70448      .   S
    C2556  O4404     0.70434      .   S
    C3276  O4404     0.70434      .   S
    C151   O4405     0.70434      .   S
    C3266  O4405     0.70434      .   S
    C541   O4406     0.70448      .   S
    C3326  O4406     0.70448      .   S
    C2816  O4407     0.70434      .   S
    C3336  O4407     0.70434      .   S
    C346   O4408     0.70434      .   S
    C3296  O4408     0.70434      .   S
    C2286  O4409     0.75535      .   S
    C2285  O4409     0.75535  1_565   S
    C2286  O4410     0.70550      .   S
    C2284  O4410     0.70550      .   S
    C1961  O4411     0.75566      .   S
    C1960  O4411     0.75566      .   S
    C1961  O4412     0.70534      .   S
    C1959  O4412     0.70534      .   S
    C1636  O4413     0.75550      .   S
    C1635  O4413     0.75550  1_655   S
    C1636  O4414     0.70564      .   S
    C1634  O4414     0.70564      .   S
    C791   O4415     0.75550      .   S
    C790   O4415     0.75550  1_565   S
    C791   O4416     0.70564      .   S
    C789   O4416     0.70564      .   S
    C1051  O4417     0.75566      .   S
    C1050  O4417     0.75566      .   S
    C1051  O4418     0.70534      .   S
    C1049  O4418     0.70534      .   S
    C1311  O4419     0.75535      .   S
    C1310  O4419     0.75535  1_655   S
    C1311  O4420     0.70550      .   S
    C1309  O4420     0.70550      .   S
    C2285  O4421     0.63699      .   S
    C2311  O4421     0.63699      .   S
    C1635  O4422     0.63699      .   S
    C1661  O4422     0.63699      .   S
    C790   O4423     0.63699      .   S
    C816   O4423     0.63699      .   S
    C1050  O4424     0.63699      .   S
    C1076  O4424     0.63699      .   S
    C1960  O4425     0.63699      .   S
    C1986  O4425     0.63699      .   S
    C1310  O4426     0.63699      .   S
    C1336  O4426     0.63699      .   S
    C236   O4427     0.94453      .   S
    C3219  O4427     0.94453      .   S
    C626   O4428     0.94461      .   S
    C3225  O4428     0.94461      .   S
    C2511  O4429     0.94453      .   S
    C3219  O4429     0.94453      .   S
    C2771  O4430     0.94483      .   S
    C3225  O4430     0.94483      .   S
    C301   O4431     0.94483      .   S
    C3220  O4431     0.94483      .   S
    C3031  O4432     0.94461      .   S
    C3220  O4432     0.94461      .   S
    C3225  O4433     0.94522      .   S
    C628   O4433     0.94522      .   S
    C3225  O4434     0.94522      .   S
    C2773  O4434     0.94522      .   S
    C3220  O4435     0.94522      .   S
    C3033  O4435     0.94522      .   S
    C3220  O4436     0.94522      .   S
    C303   O4436     0.94522      .   S
    C3219  O4437     0.94522      .   S
    C238   O4437     0.94522      .   S
    C3219  O4438     0.94522      .   S
    C2513  O4438     0.94522      .   S
    C3288  O4439     0.70659      .   S
    C282   O4439     0.70659      .   S
    C3328  O4440     0.70659      .   S
    C2752  O4440     0.70659      .   S
    C3278  O4441     0.70659      .   S
    C217   O4441     0.70659      .   S
    C3268  O4442     0.70659      .   S
    C2492  O4442     0.70659      .   S
    C3298  O4443     0.70659      .   S
    C3012  O4443     0.70659      .   S
    C3338  O4444     0.70659      .   S
    C607   O4444     0.70659      .   S
    C304   O4445     0.93494      .   S
    C3280  O4445     0.93494      .   S
    C3034  O4446     0.93487      .   S
    C3290  O4446     0.93487      .   S
    C239   O4447     0.93501      .   S
    C3270  O4447     0.93501      .   S
    C2774  O4448     0.93494      .   S
    C3320  O4448     0.93494      .   S
    C629   O4449     0.93487      .   S
    C3330  O4449     0.93487      .   S
    C2514  O4450     0.93501      .   S
    C3260  O4450     0.93501      .   S
    C2745  O4451     0.75436      .   S
    C2744  O4451     0.75436      .   S
    C2745  O4452     0.70517      .   S
    C2749  O4452     0.70517      .   S
    C210   O4453     0.75436      .   S
    C209   O4453     0.75436      .   S
    C210   O4454     0.70517      .   S
    C214   O4454     0.70517      .   S
    C600   O4455     0.75436      .   S
    C599   O4455     0.75436      .   S
    C600   O4456     0.70517      .   S
    C604   O4456     0.70517      .   S
    C3005  O4457     0.75436      .   S
    C3004  O4457     0.75436      .   S
    C3005  O4458     0.70517      .   S
    C3009  O4458     0.70517      .   S
    C2485  O4459     0.75436      .   S
    C2484  O4459     0.75436      .   S
    C2485  O4460     0.70517      .   S
    C2489  O4460     0.70517      .   S
    C275   O4461     0.75436      .   S
    C274   O4461     0.75436      .   S
    C275   O4462     0.70517      .   S
    C279   O4462     0.70517      .   S
    C1959  O4463     0.70475      .   S
    C1309  O4463     0.70475      .   S
    C1959  O4464     0.54151      .   S
    C2003  O4464     0.54151      .   S
    C2284  O4465     0.70475      .   S
    C1049  O4465     0.70475      .   S
    C2284  O4466     0.54136      .   S
    C2328  O4466     0.54136      .   S
    C1309  O4467     0.54136      .   S
    C1353  O4467     0.54136      .   S
    C1049  O4468     0.54151      .   S
    C1093  O4468     0.54151      .   S
    C789   O4469     0.70475      .   S
    C1634  O4469     0.70475      .   S
    C789   O4470     0.54166      .   S
    C833   O4470     0.54166      .   S
    C1634  O4471     0.54166      .   S
    C1678  O4471     0.54166      .   S
    C816   O4472     0.94705      .   S
    C780   O4472     0.94705      .   S
    C1661  O4473     0.94705      .   S
    C1625  O4473     0.94705      .   S
    C2311  O4474     0.94705      .   S
    C2275  O4474     0.94705      .   S
    C1986  O4475     0.94705      .   S
    C1950  O4475     0.94705      .   S
    C1076  O4476     0.94705      .   S
    C1040  O4476     0.94705      .   S
    C1336  O4477     0.94705      .   S
    C1300  O4477     0.94705      .   S
    C209   O4478     0.63638      .   S
    C234   O4478     0.63638      .   S
    C2484  O4479     0.63638      .   S
    C2509  O4479     0.63638      .   S
    C599   O4480     0.63651      .   S
    C624   O4480     0.63651      .   S
    C2744  O4481     0.63638      .   S
    C2769  O4481     0.63638      .   S
    C274   O4482     0.63638      .   S
    C299   O4482     0.63638      .   S
    C3004  O4483     0.63651      .   S
    C3029  O4483     0.63651      .   S
    C2587  O4484     0.54131      .   S
    C2543  O4484     0.54131      .   S
    C377   O4485     0.54131      .   S
    C333   O4485     0.54131      .   S
    C572   O4486     0.54131      .   S
    C528   O4486     0.54131      .   S
    C2847  O4487     0.54131      .   S
    C2803  O4487     0.54131      .   S
    C3107  O4488     0.54131      .   S
    C3063  O4488     0.54131      .   S
    C182   O4489     0.54131      .   S
    C138   O4489     0.54131      .   S
    C2750  O4490     0.70324      .   S
    C2749  O4490     0.70324      .   S
    C2750  O4491     0.54145      .   S
    C2788  O4491     0.54145      .   S
    C3010  O4492     0.70324      .   S
    C3009  O4492     0.70324      .   S
    C3010  O4493     0.54132      .   S
    C3048  O4493     0.54132      .   S
    C605   O4494     0.70324      .   S
    C604   O4494     0.70324      .   S
    C605   O4495     0.54132      .   S
    C643   O4495     0.54132      .   S
    C2490  O4496     0.70324      .   S
    C2489  O4496     0.70324      .   S
    C2490  O4497     0.54121      .   S
    C2528  O4497     0.54121      .   S
    C280   O4498     0.70324      .   S
    C279   O4498     0.70324      .   S
    C280   O4499     0.54145      .   S
    C318   O4499     0.54145      .   S
    C215   O4500     0.70324      .   S
    C214   O4500     0.70324      .   S
    C215   O4501     0.54121      .   S
    C253   O4501     0.54121      .   S
    C2577  O4502     0.94495      .   S
    C2536  O4502     0.94495      .   S
    C2577  O4503     0.63562      .   S
    C3275  O4503     0.63562      .   S
    C367   O4504     0.94495      .   S
    C326   O4504     0.94495      .   S
    C367   O4505     0.63614      .   S
    C3295  O4505     0.63614      .   S
    C2837  O4506     0.94495      .   S
    C2796  O4506     0.94495      .   S
    C2837  O4507     0.63614      .   S
    C3335  O4507     0.63614      .   S
    C3097  O4508     0.94495      .   S
    C3056  O4508     0.94495      .   S
    C3097  O4509     0.63589      .   S
    C3285  O4509     0.63589      .   S
    C172   O4510     0.94495      .   S
    C131   O4510     0.94495      .   S
    C172   O4511     0.63562      .   S
    C3265  O4511     0.63562      .   S
    C562   O4512     0.94495      .   S
    C521   O4512     0.94495      .   S
    C562   O4513     0.63589      .   S
    C3325  O4513     0.63589      .   S
    C138   O4514     0.70255      .   S
    C2803  O4514     0.70255      .   S
    C138   O4515     0.70441      .   S
    C137   O4515     0.70441      .   S
    C528   O4516     0.70255      .   S
    C3063  O4516     0.70255      .   S
    C528   O4517     0.70411      .   S
    C527   O4517     0.70411      .   S
    C2543  O4518     0.70255      .   S
    C333   O4518     0.70255      .   S
    C2543  O4519     0.70441      .   S
    C2542  O4519     0.70441      .   S
    C3063  O4520     0.70411      .   S
    C3062  O4520     0.70411      .   S
    C2803  O4521     0.70425      .   S
    C2802  O4521     0.70425      .   S
    C333   O4522     0.70425      .   S
    C332   O4522     0.70425      .   S
    C192   O4523     0.54157      .   S
    C156   O4523     0.54157      .   S
    C2597  O4524     0.54157      .   S
    C2561  O4524     0.54157      .   S
    C3117  O4525     0.54137      .   S
    C3081  O4525     0.54137      .   S
    C2857  O4526     0.54157      .   S
    C2821  O4526     0.54157      .   S
    C582   O4527     0.54137      .   S
    C546   O4527     0.54137      .   S
    C387   O4528     0.54157      .   S
    C351   O4528     0.54157      .   S
    C1300  O4529     0.94636      .   S
    C1346  O4529     0.94636      .   S
    C1300  O4530     0.95084      .   S
    C1338  O4530     0.95084      .   S
    C1625  O4531     0.96649      .   S
    C3171  O4531     0.96649      .   S
    C1625  O4532     0.94636      .   S
    C1671  O4532     0.94636      .   S
    C1625  O4533     0.95084      .   S
    C1663  O4533     0.95084      .   S
    C1040  O4534     0.94636      .   S
    C1086  O4534     0.94636      .   S
    C1040  O4535     0.95084      .   S
    C1078  O4535     0.95084      .   S
    C2275  O4536     0.96649      .   S
    C3191  O4536     0.96649      .   S
    C2275  O4537     0.94636      .   S
    C2321  O4537     0.94636      .   S
    C2275  O4538     0.95084      .   S
    C2313  O4538     0.95084      .   S
    C1950  O4539     0.94636      .   S
    C1996  O4539     0.94636      .   S
    C1950  O4540     0.95084      .   S
    C1988  O4540     0.95084      .   S
    C780   O4541     0.96649      .   S
    C3163  O4541     0.96649      .   S
    C780   O4542     0.94636      .   S
    C826   O4542     0.94636      .   S
    C780   O4543     0.95084      .   S
    C818   O4543     0.95084      .   S
    C2569  O4544     0.94364      .   S
    C2536  O4544     0.94364      .   S
    C2569  O4545     0.63536      .   S
    C2541  O4545     0.63536      .   S
    C359   O4546     0.94334      .   S
    C326   O4546     0.94334      .   S
    C359   O4547     0.63520      .   S
    C331   O4547     0.63520      .   S
    C2829  O4548     0.94334      .   S
    C2796  O4548     0.94334      .   S
    C2829  O4549     0.63520      .   S
    C2801  O4549     0.63520      .   S
    C164   O4550     0.94364      .   S
    C131   O4550     0.94364      .   S
    C164   O4551     0.63536      .   S
    C136   O4551     0.63536      .   S
    C3089  O4552     0.94357      .   S
    C3056  O4552     0.94357      .   S
    C3089  O4553     0.63551      .   S
    C3061  O4553     0.63551      .   S
    C554   O4554     0.94357      .   S
    C521   O4554     0.94357      .   S
    C554   O4555     0.63551      .   S
    C526   O4555     0.63551      .   S
    C3056  O4556     0.96297      .   S
    C3289  O4556     0.96297      .   S
    C3056  O4557     0.93573      .   S
    C3087  O4557     0.93573      .   S
    C521   O4558     0.96297      .   S
    C3329  O4558     0.96297      .   S
    C521   O4559     0.93573      .   S
    C552   O4559     0.93573      .   S
    C131   O4560     0.96249      .   S
    C3269  O4560     0.96249      .   S
    C131   O4561     0.93594      .   S
    C162   O4561     0.93594      .   S
    C2796  O4562     0.96266      .   S
    C3339  O4562     0.96266      .   S
    C2796  O4563     0.93586      .   S
    C2827  O4563     0.93586      .   S
    C326   O4564     0.96266      .   S
    C3299  O4564     0.96266      .   S
    C326   O4565     0.93586      .   S
    C357   O4565     0.93586      .   S
    C2536  O4566     0.96249      .   S
    C3279  O4566     0.96249      .   S
    C2536  O4567     0.93594      .   S
    C2567  O4567     0.93594      .   S
    C3296  O4568     0.75176      .   S
    C3295  O4568     0.75176      .   S
    C3296  O4569     0.70434      .   S
    C3011  O4569     0.70434      .   S
    C3326  O4570     0.75176      .   S
    C3325  O4570     0.75176      .   S
    C3326  O4571     0.70448      .   S
    C2751  O4571     0.70448      .   S
    C3286  O4572     0.75176      .   S
    C3285  O4572     0.75176      .   S
    C3286  O4573     0.70448      .   S
    C281   O4573     0.70448      .   S
    C3276  O4574     0.75176      .   S
    C3275  O4574     0.75176      .   S
    C3276  O4575     0.70461      .   S
    C216   O4575     0.70461      .   S
    C3266  O4576     0.75176      .   S
    C3265  O4576     0.75176      .   S
    C3266  O4577     0.70461      .   S
    C2491  O4577     0.70461      .   S
    C3336  O4578     0.75176      .   S
    C3335  O4578     0.75176      .   S
    C3336  O4579     0.70434      .   S
    C606   O4579     0.70434      .   S
    C2776  O4580     0.63606      .   S
    C2757  O4580     0.63606      .   S
    C241   O4581     0.63612      .   S
    C222   O4581     0.63612      .   S
    C2516  O4582     0.63612      .   S
    C2497  O4582     0.63612      .   S
    C631   O4583     0.63614      .   S
    C612   O4583     0.63614      .   S
    C306   O4584     0.63606      .   S
    C287   O4584     0.63606      .   S
    C3036  O4585     0.63614      .   S
    C3017  O4585     0.63614      .   S
    C3153  O4586     0.96051      .   S
    C3152  O4586     0.96051      .   S
    C3163  O4587     0.96051      .   S
    C3162  O4587     0.96051      .   S
    C3181  O4588     0.96051      .   S
    C3180  O4588     0.96051      .   S
    C3191  O4589     0.96051      .   S
    C3190  O4589     0.96051      .   S
    C3171  O4590     0.96051      .   S
    C3170  O4590     0.96051      .   S
    C3151  O4591     0.96051      .   S
    C3150  O4591     0.96051      .   S
    C214   O4592     0.54132      .   S
    C252   O4592     0.54132      .   S
    C604   O4593     0.54143      .   S
    C642   O4593     0.54143      .   S
    C279   O4594     0.54131      .   S
    C317   O4594     0.54131      .   S
    C2489  O4595     0.54132      .   S
    C2527  O4595     0.54132      .   S
    C3009  O4596     0.54143      .   S
    C3047  O4596     0.54143      .   S
    C2749  O4597     0.54131      .   S
    C2787  O4597     0.54131      .   S
    C3116  O4598     0.54159      .   S
    C3078  O4598     0.54159      .   S
    C386   O4599     0.54140      .   S
    C348   O4599     0.54140      .   S
    C2596  O4600     0.54165      .   S
    C2558  O4600     0.54165      .   S
    C2856  O4601     0.54140      .   S
    C2818  O4601     0.54140      .   S
    C581   O4602     0.54159      .   S
    C543   O4602     0.54159      .   S
    C191   O4603     0.54165      .   S
    C153   O4603     0.54165      .   S
    C332   O4604     0.74628      .   S
    C331   O4604     0.74628      .   S
    C332   O4605     0.70332      .   S
    C330   O4605     0.70332      .   S
    C2542  O4606     0.74565      .   S
    C2541  O4606     0.74565      .   S
    C2542  O4607     0.70348      .   S
    C2540  O4607     0.70348      .   S
    C527   O4608     0.74597      .   S
    C526   O4608     0.74597      .   S
    C527   O4609     0.70363      .   S
    C525   O4609     0.70363      .   S
    C3062  O4610     0.74597      .   S
    C3061  O4610     0.74597      .   S
    C3062  O4611     0.70363      .   S
    C3060  O4611     0.70363      .   S
    C137   O4612     0.74565      .   S
    C136   O4612     0.74565      .   S
    C137   O4613     0.70348      .   S
    C135   O4613     0.70348      .   S
    C2802  O4614     0.74628      .   S
    C2801  O4614     0.74628      .   S
    C2802  O4615     0.70332      .   S
    C2800  O4615     0.70332      .   S
    C2541  O4616     0.63418      .   S
    C230   O4616     0.63418      .   S
    C331   O4617     0.63404      .   S
    C3025  O4617     0.63404      .   S
    C2801  O4618     0.63404      .   S
    C620   O4618     0.63404      .   S
    C136   O4619     0.63418      .   S
    C2505  O4619     0.63418      .   S
    C526   O4620     0.63388      .   S
    C2765  O4620     0.63388      .   S
    C3061  O4621     0.63388      .   S
    C295   O4621     0.63388      .   S
    C282   O4622     0.70347      .   S
    C281   O4622     0.70347      .   S
    C282   O4623     0.54154      .   S
    C320   O4623     0.54154      .   S
    C607   O4624     0.70347      .   S
    C606   O4624     0.70347      .   S
    C607   O4625     0.54154      .   S
    C645   O4625     0.54154      .   S
    C2492  O4626     0.70347      .   S
    C2491  O4626     0.70347      .   S
    C2492  O4627     0.54154      .   S
    C2530  O4627     0.54154      .   S
    C217   O4628     0.70347      .   S
    C216   O4628     0.70347      .   S
    C217   O4629     0.54154      .   S
    C255   O4629     0.54154      .   S
    C2752  O4630     0.70347      .   S
    C2751  O4630     0.70347      .   S
    C2752  O4631     0.54154      .   S
    C2790  O4631     0.54154      .   S
    C3012  O4632     0.70347      .   S
    C3011  O4632     0.70347      .   S
    C3012  O4633     0.54154      .   S
    C3050  O4633     0.54154      .   S
    C1346  O4634     0.63612      .   S
    C1327  O4634     0.63612      .   S
    C2321  O4635     0.63612      .   S
    C2302  O4635     0.63612      .   S
    C1996  O4636     0.63636      .   S
    C1977  O4636     0.63636      .   S
    C1671  O4637     0.63614      .   S
    C1652  O4637     0.63614      .   S
    C826   O4638     0.63614      .   S
    C807   O4638     0.63614      .   S
    C1086  O4639     0.63636      .   S
    C1067  O4639     0.63636      .   S
    C2012  O4640     0.54157      .   S
    C1976  O4640     0.54157      .   S
    C1102  O4641     0.54157      .   S
    C1066  O4641     0.54157      .   S
    C842   O4642     0.54157      .   S
    C806   O4642     0.54157      .   S
    C1362  O4643     0.54167      .   S
    C1326  O4643     0.54167      .   S
    C1687  O4644     0.54157      .   S
    C1651  O4644     0.54157      .   S
    C2337  O4645     0.54167      .   S
    C2301  O4645     0.54167      .   S
    C135   O4646     0.69909      .   S
    C2800  O4646     0.69909      .   S
    C135   O4647     0.54129      .   S
    C181   O4647     0.54129      .   S
    C330   O4648     0.69909      .   S
    C2540  O4648     0.69909      .   S
    C330   O4649     0.54129      .   S
    C376   O4649     0.54129      .   S
    C3060  O4650     0.69909      .   S
    C525   O4650     0.69909      .   S
    C3060  O4651     0.54129      .   S
    C3106  O4651     0.54129      .   S
    C2540  O4652     0.54129      .   S
    C2586  O4652     0.54129      .   S
    C525   O4653     0.54129      .   S
    C571   O4653     0.54129      .   S
    C2800  O4654     0.54129      .   S
    C2846  O4654     0.54129      .   S
    C3295  O4655     0.63614      .   S
    C3032  O4655     0.63614      .   S
    C3265  O4656     0.63617      .   S
    C2512  O4656     0.63617      .   S
    C3275  O4657     0.63617      .   S
    C237   O4657     0.63617      .   S
    C3335  O4658     0.63614      .   S
    C627   O4658     0.63614      .   S
    C3325  O4659     0.63589      .   S
    C2772  O4659     0.63589      .   S
    C3285  O4660     0.63589      .   S
    C302   O4660     0.63589      .   S
    C546   O4661     0.70119      .   S
    C543   O4661     0.70119      .   S
    C546   O4662     0.70213      .   S
    C548   O4662     0.70213      .   S
    C351   O4663     0.70119      .   S
    C348   O4663     0.70119      .   S
    C351   O4664     0.70213      .   S
    C353   O4664     0.70213      .   S
    C2821  O4665     0.70119      .   S
    C2818  O4665     0.70119      .   S
    C2821  O4666     0.70213      .   S
    C2823  O4666     0.70213      .   S
    C156   O4667     0.70119      .   S
    C153   O4667     0.70119      .   S
    C156   O4668     0.70213      .   S
    C158   O4668     0.70213      .   S
    C3081  O4669     0.70119      .   S
    C3078  O4669     0.70119      .   S
    C3081  O4670     0.70213      .   S
    C3083  O4670     0.70213      .   S
    C2561  O4671     0.70119      .   S
    C2558  O4671     0.70119      .   S
    C2561  O4672     0.70213      .   S
    C2563  O4672     0.70213      .   S
    C620   O4673     0.93611      .   S
    C3330  O4673     0.93611      .   S
    C295   O4674     0.93604      .   S
    C3280  O4674     0.93604      .   S
    C3025  O4675     0.93611      .   S
    C3290  O4675     0.93611      .   S
    C230   O4676     0.93581      .   S
    C3270  O4676     0.93581      .   S
    C2505  O4677     0.93581      .   S
    C3260  O4677     0.93581      .   S
    C2765  O4678     0.93604      .   S
    C3320  O4678     0.93604      .   S
    C624   O4679     0.94412      .   S
    C3162  O4679     0.94412      .   S
    C299   O4680     0.94437      .   S
    C3152  O4680     0.94437      .   S
    C234   O4681     0.94416      .   S
    C3150  O4681     0.94416      .   S
    C2509  O4682     0.94416      .   S
    C3190  O4682     0.94416      .   S
    C3029  O4683     0.94412      .   S
    C3170  O4683     0.94412      .   S
    C2769  O4684     0.94437      .   S
    C3180  O4684     0.94437      .   S
    C2558  O4685     0.70508      .   S
    C2560  O4685     0.70508      .   S
    C153   O4686     0.70508      .   S
    C155   O4686     0.70508      .   S
    C2818  O4687     0.70508      .   S
    C2820  O4687     0.70508      .   S
    C348   O4688     0.70508      .   S
    C350   O4688     0.70508      .   S
    C543   O4689     0.70508      .   S
    C545   O4689     0.70508      .   S
    C3078  O4690     0.70508      .   S
    C3080  O4690     0.70508      .   S
    C2491  O4691     0.54130      .   S
    C2529  O4691     0.54130      .   S
    C2751  O4692     0.54130      .   S
    C2789  O4692     0.54130      .   S
    C281   O4693     0.54130      .   S
    C319   O4693     0.54130      .   S
    C216   O4694     0.54130      .   S
    C254   O4694     0.54130      .   S
    C3011  O4695     0.54130      .   S
    C3049  O4695     0.54130      .   S
    C606   O4696     0.54130      .   S
    C644   O4696     0.54130      .   S
    C3280  O4697     0.93494      .   S
    C3099  O4697     0.93494      .   S
    C3280  O4698     0.93604      .   S
    C3090  O4698     0.93604      .   S
    C3330  O4699     0.93487      .   S
    C2839  O4699     0.93487      .   S
    C3330  O4700     0.93611      .   S
    C2830  O4700     0.93611      .   S
    C3290  O4701     0.93487      .   S
    C369   O4701     0.93487      .   S
    C3290  O4702     0.93611      .   S
    C360   O4702     0.93611      .   S
    C3270  O4703     0.93544      .   S
    C2579  O4703     0.93544      .   S
    C3270  O4704     0.93603      .   S
    C2570  O4704     0.93603      .   S
    C3260  O4705     0.93544      .   S
    C174   O4705     0.93544      .   S
    C3260  O4706     0.93603      .   S
    C165   O4706     0.93603      .   S
    C3320  O4707     0.93494      .   S
    C564   O4707     0.93494      .   S
    C3320  O4708     0.93604      .   S
    C555   O4708     0.93604      .   S
    C1327  O4709     0.74091      .   S
    C2563  O4709     0.74091      .   S
    C1327  O4710     0.63139      .   S
    C242   O4710     0.63139      .   S
    C1652  O4711     0.74063      .   S
    C353   O4711     0.74063      .   S
    C1652  O4712     0.63139      .   S
    C3037  O4712     0.63139      .   S
    C1977  O4713     0.74064      .   S
    C548   O4713     0.74064      .   S
    C1977  O4714     0.63139      .   S
    C2777  O4714     0.63139      .   S
    C1067  O4715     0.74064      .   S
    C3083  O4715     0.74064      .   S
    C1067  O4716     0.63139      .   S
    C307   O4716     0.63139      .   S
    C2302  O4717     0.74091      .   S
    C158   O4717     0.74091      .   S
    C2302  O4718     0.63139      .   S
    C2517  O4718     0.63139      .   S
    C807   O4719     0.74063      .   S
    C2823  O4719     0.74063      .   S
    C807   O4720     0.63139      .   S
    C632   O4720     0.63139      .   S
    C3299  O4721     0.96266      .   S
    C2991  O4721     0.96266      .   S
    C3339  O4722     0.96266      .   S
    C586   O4722     0.96266      .   S
    C3269  O4723     0.96303      .   S
    C2471  O4723     0.96303      .   S
    C3329  O4724     0.96297      .   S
    C2731  O4724     0.96297      .   S
    C3279  O4725     0.96303      .   S
    C196   O4725     0.96303      .   S
    C3289  O4726     0.96297      .   S
    C261   O4726     0.96297      .   S
    C2579  O4727     0.63314      .   S
    C2559  O4727     0.63314      .   S
    C369   O4728     0.63341      .   S
    C349   O4728     0.63341      .   S
    C564   O4729     0.63319      .   S
    C544   O4729     0.63319      .   S
    C2839  O4730     0.63341      .   S
    C2819  O4730     0.63341      .   S
    C174   O4731     0.63314      .   S
    C154   O4731     0.63314      .   S
    C3099  O4732     0.63319      .   S
    C3079  O4732     0.63319      .   S
    C2497  O4733     0.63139      .   S
    C2322  O4733     0.63139      .   S
    C2497  O4734     0.74091      .   S
    C1068  O4734     0.74091      .   S
    C3017  O4735     0.63139      .   S
    C1672  O4735     0.63139      .   S
    C3017  O4736     0.74063      .   S
    C808   O4736     0.74063      .   S
    C2757  O4737     0.63139      .   S
    C1997  O4737     0.63139      .   S
    C2757  O4738     0.74077      .   S
    C1328  O4738     0.74077      .   S
    C222   O4739     0.63139      .   S
    C1347  O4739     0.63139      .   S
    C222   O4740     0.74091      .   S
    C1978  O4740     0.74091      .   S
    C287   O4741     0.63139      .   S
    C1087  O4741     0.63139      .   S
    C287   O4742     0.74077      .   S
    C2303  O4742     0.74077      .   S
    C612   O4743     0.63139      .   S
    C827   O4743     0.63139      .   S
    C612   O4744     0.74063      .   S
    C1653  O4744     0.74063      .   S
    C3083  O4745     0.70409      .   S
    C3085  O4745     0.70409      .   S
    C2823  O4746     0.70428      .   S
    C2825  O4746     0.70428      .   S
    C158   O4747     0.70430      .   S
    C160   O4747     0.70430      .   S
    C2563  O4748     0.70430      .   S
    C2565  O4748     0.70430      .   S
    C353   O4749     0.70428      .   S
    C355   O4749     0.70428      .   S
    C548   O4750     0.70409      .   S
    C550   O4750     0.70409      .   S
    C2827  O4751     0.63450      .   S
    C3331  O4751     0.63450      .   S
    C357   O4752     0.63450      .   S
    C3291  O4752     0.63450      .   S
    C3087  O4753     0.63450      .   S
    C3281  O4753     0.63450      .   S
    C162   O4754     0.63450      .   S
    C3261  O4754     0.63450      .   S
    C552   O4755     0.63450      .   S
    C3321  O4755     0.63450      .   S
    C2567  O4756     0.63450      .   S
    C3271  O4756     0.63450      .   S
    C1651  O4757     0.70213      .   S
    C1653  O4757     0.70213      .   S
    C1651  O4758     0.70119      .   S
    C1648  O4758     0.70119      .   S
    C1326  O4759     0.70213      .   S
    C1328  O4759     0.70213      .   S
    C1326  O4760     0.70119      .   S
    C1323  O4760     0.70119      .   S
    C806   O4761     0.70213      .   S
    C808   O4761     0.70213      .   S
    C806   O4762     0.70119      .   S
    C803   O4762     0.70119      .   S
    C2301  O4763     0.70213      .   S
    C2303  O4763     0.70213      .   S
    C2301  O4764     0.70119      .   S
    C2298  O4764     0.70119      .   S
    C1976  O4765     0.70213      .   S
    C1978  O4765     0.70213      .   S
    C1976  O4766     0.70119      .   S
    C1973  O4766     0.70119      .   S
    C1066  O4767     0.70213      .   S
    C1068  O4767     0.70213      .   S
    C1066  O4768     0.70119      .   S
    C1063  O4768     0.70119      .   S
    C2777  O4769     0.92446      .   S
    C3180  O4769     0.92446      .   S
    C3037  O4770     0.92457      .   S
    C3170  O4770     0.92457      .   S
    C307   O4771     0.92446      .   S
    C3152  O4771     0.92446      .   S
    C632   O4772     0.92457      .   S
    C3162  O4772     0.92457      .   S
    C2517  O4773     0.92426      .   S
    C3190  O4773     0.92426      .   S
    C242   O4774     0.92426      .   S
    C3150  O4774     0.92426      .   S
    C3032  O4775     0.94495      .   S
    C2991  O4775     0.94495      .   S
    C2772  O4776     0.94495      .   S
    C2731  O4776     0.94495      .   S
    C237   O4777     0.94495      .   S
    C196   O4777     0.94495      .   S
    C2512  O4778     0.94495      .   S
    C2471  O4778     0.94495      .   S
    C627   O4779     0.94495      .   S
    C586   O4779     0.94495      .   S
    C302   O4780     0.94495      .   S
    C261   O4780     0.94495      .   S
    C545   O4781     0.73985      .   S
    C544   O4781     0.73985      .   S
    C545   O4782     0.70038      .   S
    C549   O4782     0.70038      .   S
    C2560  O4783     0.73985      .   S
    C2559  O4783     0.73985      .   S
    C2560  O4784     0.70031      .   S
    C2564  O4784     0.70031      .   S
    C3080  O4785     0.73985      .   S
    C3079  O4785     0.73985      .   S
    C3080  O4786     0.70038      .   S
    C3084  O4786     0.70038      .   S
    C155   O4787     0.73985      .   S
    C154   O4787     0.73985      .   S
    C155   O4788     0.70031      .   S
    C159   O4788     0.70031      .   S
    C350   O4789     0.73985      .   S
    C349   O4789     0.73985      .   S
    C350   O4790     0.70057      .   S
    C354   O4790     0.70057      .   S
    C2820  O4791     0.73985      .   S
    C2819  O4791     0.73985      .   S
    C2820  O4792     0.70057      .   S
    C2824  O4792     0.70057      .   S
    C374   O4793     0.54153      .   S
    C328   O4793     0.54153      .   S
    C2844  O4794     0.54153      .   S
    C2798  O4794     0.54153      .   S
    C3104  O4795     0.54148      .   S
    C3058  O4795     0.54148      .   S
    C569   O4796     0.54148      .   S
    C523   O4796     0.54148      .   S
    C179   O4797     0.54147      .   S
    C133   O4797     0.54147      .   S
    C2584  O4798     0.54147      .   S
    C2538  O4798     0.54147      .   S
    C1338  O4799     0.63747      .   S
    C1314  O4799     0.63747      .   S
    C1663  O4800     0.63747      .   S
    C1639  O4800     0.63747      .   S
    C2313  O4801     0.63747      .   S
    C2289  O4801     0.63747      .   S
    C1988  O4802     0.63747      .   S
    C1964  O4802     0.63747      .   S
    C1078  O4803     0.63747      .   S
    C1054  O4803     0.63747      .   S
    C818   O4804     0.63747      .   S
    C794   O4804     0.63747      .   S
    C3170  O4805     0.92457      .   S
    C1672  O4805     0.92457      .   S
    C3170  O4806     0.94412      .   S
    C1664  O4806     0.94412      .   S
    C3180  O4807     0.92444      .   S
    C1997  O4807     0.92444      .   S
    C3180  O4808     0.94435      .   S
    C1989  O4808     0.94435      .   S
    C3190  O4809     0.92426      .   S
    C2322  O4809     0.92426      .   S
    C3190  O4810     0.94416      .   S
    C2314  O4810     0.94416      .   S
    C3150  O4811     0.92426      .   S
    C1347  O4811     0.92426      .   S
    C3150  O4812     0.94416      .   S
    C1339  O4812     0.94416      .   S
    C3152  O4813     0.92444      .   S
    C1087  O4813     0.92444      .   S
    C3152  O4814     0.94435      .   S
    C1079  O4814     0.94435      .   S
    C3162  O4815     0.92457      .   S
    C827   O4815     0.92457      .   S
    C3162  O4816     0.94412      .   S
    C819   O4816     0.94412      .   S
    C544   O4817     0.63497      .   S
    C2775  O4817     0.63497      .   S
    C2559  O4818     0.63519      .   S
    C240   O4818     0.63519      .   S
    C154   O4819     0.63519      .   S
    C2515  O4819     0.63519      .   S
    C3079  O4820     0.63497      .   S
    C305   O4820     0.63497      .   S
    C349   O4821     0.63522      .   S
    C3035  O4821     0.63522      .   S
    C2819  O4822     0.63522      .   S
    C630   O4822     0.63522      .   S
    C2011  O4823     0.54165      .   S
    C1973  O4823     0.54165      .   S
    C1101  O4824     0.54165      .   S
    C1063  O4824     0.54165      .   S
    C841   O4825     0.54140  1_565   S
    C803   O4825     0.54140      .   S
    C1361  O4826     0.54140  1_655   S
    C1323  O4826     0.54140      .   S
    C1686  O4827     0.54140  1_655   S
    C1648  O4827     0.54140      .   S
    C2336  O4828     0.54140  1_565   S
    C2298  O4828     0.54140      .   S
    C1068  O4829     0.70430      .   S
    C1070  O4829     0.70430      .   S
    C1328  O4830     0.70439      .   S
    C1330  O4830     0.70439      .   S
    C2303  O4831     0.70439      .   S
    C2305  O4831     0.70439      .   S
    C1653  O4832     0.70428      .   S
    C1655  O4832     0.70428      .   S
    C1978  O4833     0.70430      .   S
    C1980  O4833     0.70430      .   S
    C808   O4834     0.70428      .   S
    C810   O4834     0.70428      .   S
    C1973  O4835     0.70508      .   S
    C1975  O4835     0.70508      .   S
    C1648  O4836     0.70508      .   S
    C1650  O4836     0.70508      .   S
    C1063  O4837     0.70508      .   S
    C1065  O4837     0.70508      .   S
    C2298  O4838     0.70508      .   S
    C2300  O4838     0.70508      .   S
    C803   O4839     0.70508      .   S
    C805   O4839     0.70508      .   S
    C1323  O4840     0.70508      .   S
    C1325  O4840     0.70508      .   S
    C355   O4841     0.69514      .   S
    C354   O4841     0.69514      .   S
    C355   O4842     0.54144      .   S
    C389   O4842     0.54144      .   S
    C550   O4843     0.69514      .   S
    C549   O4843     0.69514      .   S
    C550   O4844     0.54163      .   S
    C584   O4844     0.54163      .   S
    C2565  O4845     0.69514      .   S
    C2564  O4845     0.69514      .   S
    C2565  O4846     0.54169      .   S
    C2599  O4846     0.54169      .   S
    C2825  O4847     0.69514      .   S
    C2824  O4847     0.69514      .   S
    C2825  O4848     0.54144      .   S
    C2859  O4848     0.54144      .   S
    C160   O4849     0.69514      .   S
    C159   O4849     0.69514      .   S
    C160   O4850     0.54169      .   S
    C194   O4850     0.54169      .   S
    C3085  O4851     0.69514      .   S
    C3084  O4851     0.69514      .   S
    C3085  O4852     0.54163      .   S
    C3119  O4852     0.54163      .   S
    C2515  O4853     0.93592      .   S
    C2471  O4853     0.93592      .   S
    C630   O4854     0.93629      .   S
    C586   O4854     0.93629      .   S
    C2775  O4855     0.93653      .   S
    C2731  O4855     0.93653      .   S
    C305   O4856     0.93653      .   S
    C261   O4856     0.93653      .   S
    C240   O4857     0.93592      .   S
    C196   O4857     0.93592      .   S
    C3035  O4858     0.93629      .   S
    C2991  O4858     0.93629      .   S
    C3084  O4859     0.54177      .   S
    C3118  O4859     0.54177      .   S
    C159   O4860     0.54156      .   S
    C193   O4860     0.54156      .   S
    C2824  O4861     0.54156      .   S
    C2858  O4861     0.54156      .   S
    C549   O4862     0.54177      .   S
    C583   O4862     0.54177      .   S
    C354   O4863     0.54156      .   S
    C388   O4863     0.54156      .   S
    C2564  O4864     0.54156      .   S
    C2598  O4864     0.54156      .   S
    C3331  O4865     0.63450      .   S
    C617   O4865     0.63450      .   S
    C3331  O4866     0.74058      .   S
    C3332  O4866     0.74058      .   S
    C3291  O4867     0.63450      .   S
    C3022  O4867     0.63450      .   S
    C3291  O4868     0.74058      .   S
    C3292  O4868     0.74058      .   S
    C3281  O4869     0.63450      .   S
    C292   O4869     0.63450      .   S
    C3281  O4870     0.74058      .   S
    C3282  O4870     0.74058      .   S
    C3261  O4871     0.63450      .   S
    C2502  O4871     0.63450      .   S
    C3261  O4872     0.74058      .   S
    C3262  O4872     0.74058      .   S
    C3321  O4873     0.63450      .   S
    C2762  O4873     0.63450      .   S
    C3321  O4874     0.74058      .   S
    C3322  O4874     0.74058      .   S
    C3271  O4875     0.63450      .   S
    C227   O4875     0.63450      .   S
    C3271  O4876     0.74058      .   S
    C3272  O4876     0.74058      .   S
    C196   O4877     0.93603      .   S
    C227   O4877     0.93603      .   S
    C196   O4878     0.94352      .   S
    C229   O4878     0.94352      .   S
    C261   O4879     0.93573      .   S
    C292   O4879     0.93573      .   S
    C261   O4880     0.94357      .   S
    C294   O4880     0.94357      .   S
    C586   O4881     0.93586      .   S
    C617   O4881     0.93586      .   S
    C586   O4882     0.94334      .   S
    C619   O4882     0.94334      .   S
    C2991  O4883     0.93586      .   S
    C3022  O4883     0.93586      .   S
    C2991  O4884     0.94334      .   S
    C3024  O4884     0.94334      .   S
    C2471  O4885     0.93603      .   S
    C2502  O4885     0.93603      .   S
    C2471  O4886     0.94352      .   S
    C2504  O4886     0.94352      .   S
    C2731  O4887     0.93573      .   S
    C2762  O4887     0.93573      .   S
    C2731  O4888     0.94357      .   S
    C2764  O4888     0.94357      .   S
    C555   O4889     0.63388      .   S
    C2736  O4889     0.63388      .   S
    C2830  O4890     0.63404      .   S
    C591   O4890     0.63404      .   S
    C360   O4891     0.63404      .   S
    C2996  O4891     0.63404      .   S
    C2570  O4892     0.63396      .   S
    C201   O4892     0.63396      .   S
    C165   O4893     0.63396      .   S
    C2476  O4893     0.63396      .   S
    C3090  O4894     0.63388      .   S
    C266   O4894     0.63388      .   S
    C2538  O4895     0.70302      .   S
    C3272  O4895     0.70302      .   S
    C2538  O4896     0.69792      .   S
    C2539  O4896     0.69792      .   S
    C2798  O4897     0.70302      .   S
    C3332  O4897     0.70302      .   S
    C2798  O4898     0.69792      .   S
    C2799  O4898     0.69792      .   S
    C328   O4899     0.70302      .   S
    C3292  O4899     0.70302      .   S
    C328   O4900     0.69792      .   S
    C329   O4900     0.69792      .   S
    C133   O4901     0.70302      .   S
    C3262  O4901     0.70302      .   S
    C133   O4902     0.69792      .   S
    C134   O4902     0.69792      .   S
    C523   O4903     0.70302      .   S
    C3322  O4903     0.70302      .   S
    C523   O4904     0.69792      .   S
    C524   O4904     0.69792      .   S
    C3058  O4905     0.70302      .   S
    C3282  O4905     0.70302      .   S
    C3058  O4906     0.69792      .   S
    C3059  O4906     0.69792      .   S
    C794   O4907     0.63651      .   S
    C819   O4907     0.63651      .   S
    C794   O4908     0.75436      .   S
    C795   O4908     0.75436      .   S
    C1314  O4909     0.63638      .   S
    C1339  O4909     0.63638      .   S
    C1314  O4910     0.75436      .   S
    C1315  O4910     0.75436      .   S
    C1639  O4911     0.63651      .   S
    C1664  O4911     0.63651      .   S
    C1639  O4912     0.75436      .   S
    C1640  O4912     0.75436      .   S
    C2289  O4913     0.63638      .   S
    C2314  O4913     0.63638      .   S
    C2289  O4914     0.75436      .   S
    C2290  O4914     0.75436      .   S
    C1964  O4915     0.63620      .   S
    C1989  O4915     0.63620      .   S
    C1964  O4916     0.75436      .   S
    C1965  O4916     0.75436      .   S
    C1054  O4917     0.63620      .   S
    C1079  O4917     0.63620      .   S
    C1054  O4918     0.75436      .   S
    C1055  O4918     0.75436      .   S
    C2845  O4919     0.54169      .   S
    C2799  O4919     0.54169      .   S
    C375   O4920     0.54169      .   S
    C329   O4920     0.54169      .   S
    C3105  O4921     0.54169      .   S
    C3059  O4921     0.54169      .   S
    C2585  O4922     0.54169      .   S
    C2539  O4922     0.54169      .   S
    C570   O4923     0.54169      .   S
    C524   O4923     0.54169      .   S
    C180   O4924     0.54169      .   S
    C134   O4924     0.54169      .   S
    C2005  O4925     0.54117      .   S
    C1963  O4925     0.54117      .   S
    C1355  O4926     0.54117      .   S
    C1313  O4926     0.54117      .   S
    C1680  O4927     0.54117      .   S
    C1638  O4927     0.54117      .   S
    C835   O4928     0.54117      .   S
    C793   O4928     0.54117      .   S
    C1095  O4929     0.54117      .   S
    C1053  O4929     0.54117      .   S
    C2330  O4930     0.54117      .   S
    C2288  O4930     0.54117      .   S
    C1655  O4931     0.54144      .   S
    C1689  O4931     0.54144      .   S
    C1655  O4932     0.69514      .   S
    C1654  O4932     0.69514      .   S
    C1070  O4933     0.54169      .   S
    C1104  O4933     0.54169      .   S
    C1070  O4934     0.69514      .   S
    C1069  O4934     0.69514      .   S
    C810   O4935     0.54144      .   S
    C844   O4935     0.54144      .   S
    C810   O4936     0.69514      .   S
    C809   O4936     0.69514      .   S
    C1330  O4937     0.54145      .   S
    C1364  O4937     0.54145      .   S
    C1330  O4938     0.69514      .   S
    C1329  O4938     0.69514      .   S
    C2305  O4939     0.54145      .   S
    C2339  O4939     0.54145      .   S
    C2305  O4940     0.69514      .   S
    C2304  O4940     0.69514      .   S
    C1980  O4941     0.54169      .   S
    C2014  O4941     0.54169      .   S
    C1980  O4942     0.69514      .   S
    C1979  O4942     0.69514      .   S
    C3292  O4943     0.70302      .   S
    C2993  O4943     0.70302      .   S
    C3332  O4944     0.70302      .   S
    C588   O4944     0.70302      .   S
    C3282  O4945     0.70302      .   S
    C263   O4945     0.70302      .   S
    C3272  O4946     0.70302      .   S
    C198   O4946     0.70302      .   S
    C3262  O4947     0.70302      .   S
    C2473  O4947     0.70302      .   S
    C3322  O4948     0.70302      .   S
    C2733  O4948     0.70302      .   S
    C2799  O4949     0.70283      .   S
    C3334  O4949     0.70283      .   S
    C134   O4950     0.70279      .   S
    C3264  O4950     0.70279      .   S
    C524   O4951     0.70279      .   S
    C3324  O4951     0.70279      .   S
    C329   O4952     0.70283      .   S
    C3294  O4952     0.70283      .   S
    C2539  O4953     0.70279      .   S
    C3274  O4953     0.70279      .   S
    C3059  O4954     0.70279      .   S
    C3284  O4954     0.70279      .   S
    C2300  O4955     0.70056      .   S
    C2304  O4955     0.70056      .   S
    C2300  O4956     0.73985  1_545   S
    C2299  O4956     0.73985      .   S
    C1065  O4957     0.70031      .   S
    C1069  O4957     0.70031      .   S
    C1065  O4958     0.73985      .   S
    C1064  O4958     0.73985      .   S
    C1975  O4959     0.70031      .   S
    C1979  O4959     0.70031      .   S
    C1975  O4960     0.73985      .   S
    C1974  O4960     0.73985      .   S
    C805   O4961     0.70057      .   S
    C809   O4961     0.70057      .   S
    C805   O4962     0.73985  1_545   S
    C804   O4962     0.73985      .   S
    C1325  O4963     0.70056      .   S
    C1329  O4963     0.70056      .   S
    C1325  O4964     0.73985  1_455   S
    C1324  O4964     0.73985      .   S
    C1650  O4965     0.70057      .   S
    C1654  O4965     0.70057      .   S
    C1650  O4966     0.73985  1_455   S
    C1649  O4966     0.73985      .   S
    C591   O4967     0.63520      .   S
    C619   O4967     0.63520      .   S
    C591   O4968     0.74628      .   S
    C592   O4968     0.74628      .   S
    C201   O4969     0.63542      .   S
    C229   O4969     0.63542      .   S
    C201   O4970     0.74599      .   S
    C202   O4970     0.74599      .   S
    C266   O4971     0.63551      .   S
    C294   O4971     0.63551      .   S
    C266   O4972     0.74597      .   S
    C267   O4972     0.74597      .   S
    C2476  O4973     0.63542      .   S
    C2504  O4973     0.63542      .   S
    C2476  O4974     0.74599      .   S
    C2477  O4974     0.74599      .   S
    C2996  O4975     0.63520      .   S
    C3024  O4975     0.63520      .   S
    C2996  O4976     0.74628      .   S
    C2997  O4976     0.74628      .   S
    C2736  O4977     0.63551      .   S
    C2764  O4977     0.63551      .   S
    C2736  O4978     0.74597      .   S
    C2737  O4978     0.74597      .   S
    C1669  O4979     0.63341      .   S
    C1649  O4979     0.63341      .   S
    C1669  O4980     0.93487      .   S
    C3360  O4980     0.93487      .   S
    C824   O4981     0.63341      .   S
    C804   O4981     0.63341      .   S
    C824   O4982     0.93487      .   S
    C3360  O4982     0.93487      .   S
    C1084  O4983     0.63314      .   S
    C1064  O4983     0.63314      .   S
    C1084  O4984     0.93544      .   S
    C3400  O4984     0.93544      .   S
    C2319  O4985     0.63336      .   S
    C2299  O4985     0.63336      .   S
    C2319  O4986     0.93501      .   S
    C3400  O4986     0.93501      .   S
    C1344  O4987     0.63336      .   S
    C1324  O4987     0.63336      .   S
    C1344  O4988     0.93501      .   S
    C3440  O4988     0.93501      .   S
    C1994  O4989     0.63314      .   S
    C1974  O4989     0.63314      .   S
    C1994  O4990     0.93544      .   S
    C3440  O4990     0.93544      .   S
    C1091  O4991     0.54129      .   S
    C1045  O4991     0.54129      .   S
    C831   O4992     0.54129      .   S
    C785   O4992     0.54129      .   S
    C1676  O4993     0.54129      .   S
    C1630  O4993     0.54129      .   S
    C1351  O4994     0.54129      .   S
    C1305  O4994     0.54129      .   S
    C2001  O4995     0.54129      .   S
    C1955  O4995     0.54129      .   S
    C2326  O4996     0.54129      .   S
    C2280  O4996     0.54129      .   S
    C1313  O4997     0.70555      .   S
    C1315  O4997     0.70555      .   S
    C1313  O4998     0.70600      .   S
    C1316  O4998     0.70600      .   S
    C2288  O4999     0.70555      .   S
    C2290  O4999     0.70555      .   S
    C2288  O5000     0.70600      .   S
    C2291  O5000     0.70600      .   S
    C793   O5001     0.70544      .   S
    C795   O5001     0.70544      .   S
    C793   O5002     0.70600      .   S
    C796   O5002     0.70600      .   S
    C1638  O5003     0.70544      .   S
    C1640  O5003     0.70544      .   S
    C1638  O5004     0.70600      .   S
    C1641  O5004     0.70600      .   S
    C1963  O5005     0.70575      .   S
    C1965  O5005     0.70575      .   S
    C1963  O5006     0.70600      .   S
    C1966  O5006     0.70600      .   S
    C1053  O5007     0.70575      .   S
    C1055  O5007     0.70575      .   S
    C1053  O5008     0.70600      .   S
    C1056  O5008     0.70600      .   S
    C2290  O5009     0.70517      .   S
    C2294  O5009     0.70517      .   S
    C1315  O5010     0.70517      .   S
    C1319  O5010     0.70517      .   S
    C1640  O5011     0.70517      .   S
    C1644  O5011     0.70517      .   S
    C1965  O5012     0.70517      .   S
    C1969  O5012     0.70517      .   S
    C1055  O5013     0.70517      .   S
    C1059  O5013     0.70517      .   S
    C795   O5014     0.70517      .   S
    C799   O5014     0.70517      .   S
    C2304  O5015     0.54146      .   S
    C2338  O5015     0.54146      .   S
    C1654  O5016     0.54156      .   S
    C1688  O5016     0.54156      .   S
    C1329  O5017     0.54146      .   S
    C1363  O5017     0.54146      .   S
    C1979  O5018     0.54156      .   S
    C2013  O5018     0.54156      .   S
    C1069  O5019     0.54156      .   S
    C1103  O5019     0.54156      .   S
    C809   O5020     0.54156      .   S
    C843   O5020     0.54156      .   S
    C3041  O5021     0.54129      .   S
    C2995  O5021     0.54129      .   S
    C2521  O5022     0.54129      .   S
    C2475  O5022     0.54129      .   S
    C246   O5023     0.54129      .   S
    C200   O5023     0.54129      .   S
    C311   O5024     0.54129      .   S
    C265   O5024     0.54129      .   S
    C636   O5025     0.54129      .   S
    C590   O5025     0.54129      .   S
    C2781  O5026     0.54129      .   S
    C2735  O5026     0.54129      .   S
    C2299  O5027     0.63525      .   S
    C1085  O5027     0.63525      .   S
    C804   O5028     0.63522      .   S
    C1670  O5028     0.63522      .   S
    C1324  O5029     0.63525      .   S
    C1995  O5029     0.63525      .   S
    C1649  O5030     0.63522      .   S
    C825   O5030     0.63522      .   S
    C1974  O5031     0.63519      .   S
    C1345  O5031     0.63519      .   S
    C1064  O5032     0.63519      .   S
    C2320  O5032     0.63519      .   S
    C3360  O5033     0.93611      .   S
    C1660  O5033     0.93611      .   S
    C3360  O5034     0.93611      .   S
    C815   O5034     0.93611      .   S
    C3440  O5035     0.93581      .   S
    C1335  O5035     0.93581      .   S
    C3440  O5036     0.93603      .   S
    C1985  O5036     0.93603      .   S
    C3400  O5037     0.93581      .   S
    C2310  O5037     0.93581      .   S
    C3400  O5038     0.93603      .   S
    C1075  O5038     0.93603      .   S
    C1045  O5039     0.69909      .   S
    C1630  O5039     0.69909      .   S
    C1045  O5040     0.70348      .   S
    C1047  O5040     0.70348      .   S
    C785   O5041     0.69909      .   S
    C1955  O5041     0.69909      .   S
    C785   O5042     0.70332      .   S
    C787   O5042     0.70332      .   S
    C1305  O5043     0.69909      .   S
    C2280  O5043     0.69909      .   S
    C1305  O5044     0.70353      .   S
    C1307  O5044     0.70353      .   S
    C2280  O5045     0.70353      .   S
    C2282  O5045     0.70353      .   S
    C1955  O5046     0.70348      .   S
    C1957  O5046     0.70348      .   S
    C1630  O5047     0.70332      .   S
    C1632  O5047     0.70332      .   S
    C198   O5048     0.54175      .   S
    C244   O5048     0.54175      .   S
    C198   O5049     0.69792      .   S
    C199   O5049     0.69792      .   S
    C2733  O5050     0.54148      .   S
    C2779  O5050     0.54148      .   S
    C2733  O5051     0.69792      .   S
    C2734  O5051     0.69792      .   S
    C588   O5052     0.54153      .   S
    C634   O5052     0.54153      .   S
    C588   O5053     0.69792      .   S
    C589   O5053     0.69792      .   S
    C2993  O5054     0.54153      .   S
    C3039  O5054     0.54153      .   S
    C2993  O5055     0.69792      .   S
    C2994  O5055     0.69792      .   S
    C2473  O5056     0.54175      .   S
    C2519  O5056     0.54175      .   S
    C2473  O5057     0.69792      .   S
    C2474  O5057     0.69792      .   S
    C263   O5058     0.54148      .   S
    C309   O5058     0.54148      .   S
    C263   O5059     0.69792      .   S
    C264   O5059     0.69792      .   S
    C1335  O5060     0.63418      .   S
    C1956  O5060     0.63418      .   S
    C1660  O5061     0.63404      .   S
    C786   O5061     0.63404      .   S
    C2310  O5062     0.63418      .   S
    C1046  O5062     0.63418      .   S
    C815   O5063     0.63404      .   S
    C1631  O5063     0.63404      .   S
    C1075  O5064     0.63396      .   S
    C2281  O5064     0.63396      .   S
    C1985  O5065     0.63396      .   S
    C1306  O5065     0.63396      .   S
    C3284  O5066     0.70279      .   S
    C264   O5066     0.70279      .   S
    C3284  O5067     0.74078      .   S
    C3283  O5067     0.74078      .   S
    C3294  O5068     0.70283      .   S
    C2994  O5068     0.70283      .   S
    C3294  O5069     0.74063      .   S
    C3293  O5069     0.74063      .   S
    C3334  O5070     0.70283      .   S
    C589   O5070     0.70283      .   S
    C3334  O5071     0.74063      .   S
    C3333  O5071     0.74063      .   S
    C3264  O5072     0.70306      .   S
    C2474  O5072     0.70306      .   S
    C3264  O5073     0.74027      .   S
    C3263  O5073     0.74027      .   S
    C3274  O5074     0.70306      .   S
    C199   O5074     0.70306      .   S
    C3274  O5075     0.74027      .   S
    C3273  O5075     0.74027      .   S
    C3324  O5076     0.70279      .   S
    C2734  O5076     0.70279      .   S
    C3324  O5077     0.74078      .   S
    C3323  O5077     0.74078      .   S
    C200   O5078     0.70353      .   S
    C202   O5078     0.70353      .   S
    C200   O5079     0.69909      .   S
    C2670  O5079     0.69909      .   S
    C590   O5080     0.70332      .   S
    C592   O5080     0.70332      .   S
    C590   O5081     0.69909      .   S
    C2930  O5081     0.69909      .   S
    C2995  O5082     0.70332      .   S
    C2997  O5082     0.70332      .   S
    C2995  O5083     0.69909      .   S
    C655   O5083     0.69909      .   S
    C2475  O5084     0.70353      .   S
    C2477  O5084     0.70353      .   S
    C2475  O5085     0.69909      .   S
    C460   O5085     0.69909      .   S
    C2735  O5086     0.70363      .   S
    C2737  O5086     0.70363      .   S
    C2735  O5087     0.69909      .   S
    C5     O5087     0.69909      .   S
    C265   O5088     0.70363      .   S
    C267   O5088     0.70363      .   S
    C265   O5089     0.69909      .   S
    C2410  O5089     0.69909      .   S
    C267   O5090     0.70411      .   S
    C268   O5090     0.70411      .   S
    C2737  O5091     0.70411      .   S
    C2738  O5091     0.70411      .   S
    C202   O5092     0.70420      .   S
    C203   O5092     0.70420      .   S
    C2997  O5093     0.70425      .   S
    C2998  O5093     0.70425      .   S
    C592   O5094     0.70425      .   S
    C593   O5094     0.70425      .   S
    C2477  O5095     0.70420      .   S
    C2478  O5095     0.70420      .   S
    C2843  O5096     0.54169      .   S
    C2797  O5096     0.54169      .   S
    C178   O5097     0.54147      .   S
    C132   O5097     0.54147      .   S
    C373   O5098     0.54169      .   S
    C327   O5098     0.54169      .   S
    C3103  O5099     0.54154      .   S
    C3057  O5099     0.54154      .   S
    C568   O5100     0.54154      .   S
    C522   O5100     0.54154      .   S
    C2583  O5101     0.54147      .   S
    C2537  O5101     0.54147      .   S
    C836   O5102     0.54171  1_545   S
    C796   O5102     0.54171      .   S
    C2006  O5103     0.54109      .   S
    C1966  O5103     0.54109      .   S
    C1356  O5104     0.54149  1_455   S
    C1316  O5104     0.54149      .   S
    C1681  O5105     0.54171  1_455   S
    C1641  O5105     0.54171      .   S
    C1096  O5106     0.54109      .   S
    C1056  O5106     0.54109      .   S
    C2331  O5107     0.54149  1_545   S
    C2291  O5107     0.54149      .   S
    C2828  O5108     0.93534      .   S
    C3122  O5108     0.93534      .   S
    C2828  O5109     0.63402      .   S
    C3333  O5109     0.63402      .   S
    C2568  O5110     0.93534      .   S
    C3125  O5110     0.93534      .   S
    C2568  O5111     0.63424      .   S
    C3273  O5111     0.63424      .   S
    C163   O5112     0.93534      .   S
    C3122  O5112     0.93534      .   S
    C163   O5113     0.63424      .   S
    C3263  O5113     0.63424      .   S
    C553   O5114     0.93534      .   S
    C3128  O5114     0.93534      .   S
    C553   O5115     0.63398      .   S
    C3323  O5115     0.63398      .   S
    C3088  O5116     0.93534      .   S
    C3128  O5116     0.93534      .   S
    C3088  O5117     0.63398      .   S
    C3283  O5117     0.63398      .   S
    C358   O5118     0.93534      .   S
    C3125  O5118     0.93534      .   S
    C358   O5119     0.63402      .   S
    C3293  O5119     0.63402      .   S
    C1641  O5120     0.70565      .   S
    C1643  O5120     0.70565      .   S
    C1966  O5121     0.70580      .   S
    C1968  O5121     0.70580      .   S
    C796   O5122     0.70565      .   S
    C798   O5122     0.70565      .   S
    C2291  O5123     0.70575      .   S
    C2293  O5123     0.70575      .   S
    C1316  O5124     0.70575      .   S
    C1318  O5124     0.70575      .   S
    C1056  O5125     0.70580      .   S
    C1058  O5125     0.70580      .   S
    C799   O5126     0.54143      .   S
    C837   O5126     0.54143      .   S
    C799   O5127     0.70324      .   S
    C800   O5127     0.70324      .   S
    C1319  O5128     0.54132      .   S
    C1357  O5128     0.54132      .   S
    C1319  O5129     0.70324      .   S
    C1320  O5129     0.70324      .   S
    C1059  O5130     0.54112      .   S
    C1097  O5130     0.54112      .   S
    C1059  O5131     0.70324      .   S
    C1060  O5131     0.70324      .   S
    C1969  O5132     0.54112      .   S
    C2007  O5132     0.54112      .   S
    C1969  O5133     0.70324      .   S
    C1970  O5133     0.70324      .   S
    C1644  O5134     0.54143      .   S
    C1682  O5134     0.54143      .   S
    C1644  O5135     0.70324      .   S
    C1645  O5135     0.70324      .   S
    C2294  O5136     0.54132      .   S
    C2332  O5136     0.54132      .   S
    C2294  O5137     0.70324      .   S
    C2295  O5137     0.70324      .   S
    C264   O5138     0.54169      .   S
    C310   O5138     0.54169      .   S
    C2734  O5139     0.54169      .   S
    C2780  O5139     0.54169      .   S
    C199   O5140     0.54169      .   S
    C245   O5140     0.54169      .   S
    C2994  O5141     0.54169      .   S
    C3040  O5141     0.54169      .   S
    C2474  O5142     0.54169      .   S
    C2520  O5142     0.54169      .   S
    C589   O5143     0.54169      .   S
    C635   O5143     0.54169      .   S
    C1345  O5144     0.93592      .   S
    C1301  O5144     0.93592      .   S
    C825   O5145     0.93629      .   S
    C781   O5145     0.93629      .   S
    C2320  O5146     0.93592      .   S
    C2276  O5146     0.93592      .   S
    C1670  O5147     0.93629      .   S
    C1626  O5147     0.93629      .   S
    C1085  O5148     0.93616      .   S
    C1041  O5148     0.93616      .   S
    C1995  O5149     0.93616      .   S
    C1951  O5149     0.93616      .   S
    C3125  O5150     0.93478      .   S
    C2566  O5150     0.93478      .   S
    C3125  O5151     0.93478      .   S
    C356   O5151     0.93478      .   S
    C3122  O5152     0.93478      .   S
    C161   O5152     0.93478      .   S
    C3122  O5153     0.93478      .   S
    C2826  O5153     0.93478      .   S
    C3122  O5154     0.96244      .   S
    C3530  O5154     0.96244      .   S
    C3128  O5155     0.93478      .   S
    C551   O5155     0.93478      .   S
    C3128  O5156     0.93478      .   S
    C3086  O5156     0.93478      .   S
    C3128  O5157     0.96235      .   S
    C3528  O5157     0.96235      .   S
    C1047  O5158     0.74565      .   S
    C1046  O5158     0.74565      .   S
    C1047  O5159     0.70441      .   S
    C1048  O5159     0.70441      .   S
    C787   O5160     0.74628      .   S
    C786   O5160     0.74628      .   S
    C787   O5161     0.70425      .   S
    C788   O5161     0.70425      .   S
    C1957  O5162     0.74565      .   S
    C1956  O5162     0.74565      .   S
    C1957  O5163     0.70441      .   S
    C1958  O5163     0.70441      .   S
    C1307  O5164     0.74599      .   S
    C1306  O5164     0.74599      .   S
    C1307  O5165     0.70420      .   S
    C1308  O5165     0.70420      .   S
    C2282  O5166     0.74599      .   S
    C2281  O5166     0.74599      .   S
    C2282  O5167     0.70420      .   S
    C2283  O5167     0.70420      .   S
    C1632  O5168     0.74628      .   S
    C1631  O5168     0.74628      .   S
    C1632  O5169     0.70425      .   S
    C1633  O5169     0.70425      .   S
    C3323  O5170     0.63398      .   S
    C2763  O5170     0.63398      .   S
    C3333  O5171     0.63402      .   S
    C618   O5171     0.63402      .   S
    C3293  O5172     0.63402      .   S
    C3023  O5172     0.63402      .   S
    C3283  O5173     0.63398      .   S
    C293   O5173     0.63398      .   S
    C3273  O5174     0.63396      .   S
    C228   O5174     0.63396      .   S
    C3263  O5175     0.63396      .   S
    C2503  O5175     0.63396      .   S
    C2281  O5176     0.63542      .   S
    C2309  O5176     0.63542      .   S
    C786   O5177     0.63520      .   S
    C814   O5177     0.63520      .   S
    C1956  O5178     0.63536      .   S
    C1984  O5178     0.63536      .   S
    C1306  O5179     0.63542      .   S
    C1334  O5179     0.63542      .   S
    C1631  O5180     0.63520      .   S
    C1659  O5180     0.63520      .   S
    C1046  O5181     0.63536      .   S
    C1074  O5181     0.63536      .   S
    C327   O5182     0.69784      .   S
    C3057  O5182     0.69784      .   S
    C327   O5183     0.70440      .   S
    C3491  O5183     0.70440      .   S
    C132   O5184     0.69784      .   S
    C2537  O5184     0.69784      .   S
    C132   O5185     0.70445      .   S
    C3485  O5185     0.70445      .   S
    C2797  O5186     0.69784      .   S
    C522   O5186     0.69784      .   S
    C2797  O5187     0.70440      .   S
    C3499  O5187     0.70440      .   S
    C522   O5188     0.70424      .   S
    C3497  O5188     0.70424      .   S
    C2537  O5189     0.70445      .   S
    C3487  O5189     0.70445      .   S
    C3057  O5190     0.70424      .   S
    C3489  O5190     0.70424      .   S
    C2976  O5191     0.54129      .   S
    C2930  O5191     0.54129      .   S
    C2716  O5192     0.54129      .   S
    C2670  O5192     0.54129      .   S
    C701   O5193     0.54129      .   S
    C655   O5193     0.54129      .   S
    C51    O5194     0.54129      .   S
    C5     O5194     0.54129      .   S
    C2456  O5195     0.54129      .   S
    C2410  O5195     0.54129      .   S
    C506   O5196     0.54129      .   S
    C460   O5196     0.54129      .   S
    C551   O5197     0.63422      .   S
    C3496  O5197     0.63422      .   S
    C2566  O5198     0.63422      .   S
    C3486  O5198     0.63422      .   S
    C161   O5199     0.63422      .   S
    C3484  O5199     0.63422      .   S
    C356   O5200     0.63422      .   S
    C3490  O5200     0.63422      .   S
    C2826  O5201     0.63422      .   S
    C3498  O5201     0.63422      .   S
    C3086  O5202     0.63422      .   S
    C3488  O5202     0.63422      .   S
    C2670  O5203     0.70353      .   S
    C2672  O5203     0.70353      .   S
    C2410  O5204     0.70363      .   S
    C2412  O5204     0.70363      .   S
    C2930  O5205     0.70348      .   S
    C2932  O5205     0.70348      .   S
    C5     O5206     0.70363      .   S
    C7     O5206     0.70363      .   S
    C655   O5207     0.70348      .   S
    C657   O5207     0.70348      .   S
    C460   O5208     0.70353      .   S
    C462   O5208     0.70353      .   S
    C3449  O5209     0.96303      .   S
    C1301  O5209     0.96303      .   S
    C3449  O5210     0.96249      .   S
    C1951  O5210     0.96249      .   S
    C3369  O5211     0.96266      .   S
    C1626  O5211     0.96266      .   S
    C3369  O5212     0.96266      .   S
    C781   O5212     0.96266      .   S
    C3409  O5213     0.96303      .   S
    C2276  O5213     0.96303      .   S
    C3409  O5214     0.96249      .   S
    C1041  O5214     0.96249      .   S
    C268   O5215     0.54131      .   S
    C312   O5215     0.54131      .   S
    C268   O5216     0.70255      .   S
    C2413  O5216     0.70255      .   S
    C593   O5217     0.54131      .   S
    C637   O5217     0.54131      .   S
    C593   O5218     0.70255      .   S
    C2933  O5218     0.70255      .   S
    C2478  O5219     0.54131      .   S
    C2522  O5219     0.54131      .   S
    C2478  O5220     0.70255      .   S
    C463   O5220     0.70255      .   S
    C2738  O5221     0.54131      .   S
    C2782  O5221     0.54131      .   S
    C2738  O5222     0.70255      .   S
    C8     O5222     0.70255      .   S
    C203   O5223     0.54131      .   S
    C247   O5223     0.54131      .   S
    C203   O5224     0.70255      .   S
    C2673  O5224     0.70255      .   S
    C2998  O5225     0.54131      .   S
    C3042  O5225     0.54131      .   S
    C2998  O5226     0.70255      .   S
    C658   O5226     0.70255      .   S
    C2293  O5227     0.70505      .   S
    C2295  O5227     0.70505      .   S
    C2293  O5228     0.75417      .   S
    C2292  O5228     0.75417      .   S
    C1318  O5229     0.70505      .   S
    C1320  O5229     0.70505      .   S
    C1318  O5230     0.75417      .   S
    C1317  O5230     0.75417      .   S
    C1643  O5231     0.70505      .   S
    C1645  O5231     0.70505      .   S
    C1643  O5232     0.75417      .   S
    C1642  O5232     0.75417      .   S
    C1968  O5233     0.70505      .   S
    C1970  O5233     0.70505      .   S
    C1968  O5234     0.75417      .   S
    C1967  O5234     0.75417      .   S
    C1058  O5235     0.70505      .   S
    C1060  O5235     0.70505      .   S
    C1058  O5236     0.75417      .   S
    C1057  O5236     0.75417      .   S
    C798   O5237     0.70505      .   S
    C800   O5237     0.70505      .   S
    C798   O5238     0.75417      .   S
    C797   O5238     0.75417      .   S
    C2295  O5239     0.54121      .   S
    C2333  O5239     0.54121      .   S
    C800   O5240     0.54132      .   S
    C838   O5240     0.54132      .   S
    C1645  O5241     0.54132      .   S
    C1683  O5241     0.54132      .   S
    C1970  O5242     0.54115      .   S
    C2008  O5242     0.54115      .   S
    C1320  O5243     0.54121      .   S
    C1358  O5243     0.54121      .   S
    C1060  O5244     0.54115      .   S
    C1098  O5244     0.54115      .   S
    C814   O5245     0.94334      .   S
    C781   O5245     0.94334      .   S
    C2309  O5246     0.94352      .   S
    C2276  O5246     0.94352      .   S
    C1659  O5247     0.94334      .   S
    C1626  O5247     0.94334      .   S
    C1984  O5248     0.94364      .   S
    C1951  O5248     0.94364      .   S
    C1074  O5249     0.94364      .   S
    C1041  O5249     0.94364      .   S
    C1334  O5250     0.94352      .   S
    C1301  O5250     0.94352      .   S
    C2283  O5251     0.70255      .   S
    C1308  O5251     0.70255      .   S
    C2283  O5252     0.54131      .   S
    C2327  O5252     0.54131      .   S
    C1308  O5253     0.54131      .   S
    C1352  O5253     0.54131      .   S
    C1633  O5254     0.70255      .   S
    C1048  O5254     0.70255      .   S
    C1633  O5255     0.54131      .   S
    C1677  O5255     0.54131      .   S
    C1958  O5256     0.70255      .   S
    C788   O5256     0.70255      .   S
    C1958  O5257     0.54131      .   S
    C2002  O5257     0.54131      .   S
    C788   O5258     0.54131      .   S
    C832   O5258     0.54131      .   S
    C1048  O5259     0.54131      .   S
    C1092  O5259     0.54131      .   S
    C3489  O5260     0.70311      .   S
    C3488  O5260     0.70311      .   S
    C3489  O5261     0.70424      .   S
    C262   O5261     0.70424      .   S
    C3485  O5262     0.70311      .   S
    C3484  O5262     0.70311      .   S
    C3485  O5263     0.70418      .   S
    C2472  O5263     0.70418      .   S
    C3487  O5264     0.70311      .   S
    C3486  O5264     0.70311      .   S
    C3487  O5265     0.70418      .   S
    C197   O5265     0.70418      .   S
    C3499  O5266     0.70311      .   S
    C3498  O5266     0.70311      .   S
    C3499  O5267     0.70440      .   S
    C587   O5267     0.70440      .   S
    C3497  O5268     0.70311      .   S
    C3496  O5268     0.70311      .   S
    C3497  O5269     0.70424      .   S
    C2732  O5269     0.70424      .   S
    C3491  O5270     0.70311      .   S
    C3490  O5270     0.70311      .   S
    C3491  O5271     0.70440      .   S
    C2992  O5271     0.70440      .   S
    C3486  O5272     0.63422      .   S
    C226   O5272     0.63422      .   S
    C3488  O5273     0.63422      .   S
    C291   O5273     0.63422      .   S
    C3498  O5274     0.63422      .   S
    C616   O5274     0.63422      .   S
    C3496  O5275     0.63422      .   S
    C2761  O5275     0.63422      .   S
    C3490  O5276     0.63422      .   S
    C3021  O5276     0.63422      .   S
    C3484  O5277     0.63422      .   S
    C2501  O5277     0.63422      .   S
    C3023  O5278     0.93534      .   S
    C3130  O5278     0.93534      .   S
    C2763  O5279     0.93534      .   S
    C3120  O5279     0.93534      .   S
    C618   O5280     0.93534      .   S
    C3129  O5280     0.93534      .   S
    C228   O5281     0.93534      .   S
    C3123  O5281     0.93534      .   S
    C2503  O5282     0.93534      .   S
    C3127  O5282     0.93534      .   S
    C293   O5283     0.93534      .   S
    C3124  O5283     0.93534      .   S
    C1626  O5284     0.94495      .   S
    C1667  O5284     0.94495      .   S
    C1626  O5285     0.93586      .   S
    C1657  O5285     0.93586      .   S
    C2276  O5286     0.94495      .   S
    C2317  O5286     0.94495      .   S
    C2276  O5287     0.93603      .   S
    C2307  O5287     0.93603      .   S
    C1301  O5288     0.94495      .   S
    C1342  O5288     0.94495      .   S
    C1301  O5289     0.93603      .   S
    C1332  O5289     0.93603      .   S
    C781   O5290     0.94495      .   S
    C822   O5290     0.94495      .   S
    C781   O5291     0.93586      .   S
    C812   O5291     0.93586      .   S
    C1041  O5292     0.94495      .   S
    C1082  O5292     0.94495      .   S
    C1041  O5293     0.93594      .   S
    C1072  O5293     0.93594      .   S
    C1951  O5294     0.94495      .   S
    C1992  O5294     0.94495      .   S
    C1951  O5295     0.93594      .   S
    C1982  O5295     0.93594      .   S
    C2412  O5296     0.70411      .   S
    C2413  O5296     0.70411      .   S
    C2412  O5297     0.74597      .   S
    C2411  O5297     0.74597      .   S
    C462   O5298     0.70420      .   S
    C463   O5298     0.70420      .   S
    C462   O5299     0.74599      .   S
    C461   O5299     0.74599      .   S
    C7     O5300     0.70411      .   S
    C8     O5300     0.70411      .   S
    C7     O5301     0.74597      .   S
    C6     O5301     0.74597      .   S
    C2672  O5302     0.70420      .   S
    C2673  O5302     0.70420      .   S
    C2672  O5303     0.74599      .   S
    C2671  O5303     0.74599      .   S
    C2932  O5304     0.70441      .   S
    C2933  O5304     0.70441      .   S
    C2932  O5305     0.74565      .   S
    C2931  O5305     0.74565      .   S
    C657   O5306     0.70441      .   S
    C658   O5306     0.70441      .   S
    C657   O5307     0.74565      .   S
    C656   O5307     0.74565      .   S
    C8     O5308     0.54131      .   S
    C52    O5308     0.54131      .   S
    C2933  O5309     0.54131      .   S
    C2977  O5309     0.54131      .   S
    C2673  O5310     0.54131      .   S
    C2717  O5310     0.54131      .   S
    C658   O5311     0.54131      .   S
    C702   O5311     0.54131      .   S
    C2413  O5312     0.54131      .   S
    C2457  O5312     0.54131      .   S
    C463   O5313     0.54131      .   S
    C507   O5313     0.54131      .   S
    C3531  O5314     0.96217      .   S
    C3123  O5314     0.96217      .   S
    C3531  O5315     0.96244      .   S
    C3130  O5315     0.96244      .   S
    C3530  O5316     0.96217      .   S
    C3127  O5316     0.96217      .   S
    C3528  O5317     0.96235      .   S
    C3124  O5317     0.96235      .   S
    C1665  O5318     0.63735  1_455   S
    C1642  O5318     0.63735      .   S
    C1665  O5319     0.94911      .   S
    C3204  O5319     0.94911      .   S
    C1080  O5320     0.63735      .   S
    C1057  O5320     0.63735      .   S
    C1080  O5321     0.94911      .   S
    C3208  O5321     0.94911      .   S
    C1340  O5322     0.63735  1_455   S
    C1317  O5322     0.63735      .   S
    C1340  O5323     0.94911      .   S
    C3212  O5323     0.94911      .   S
    C2315  O5324     0.63735  1_545   S
    C2292  O5324     0.63735      .   S
    C2315  O5325     0.94911      .   S
    C3208  O5325     0.94911      .   S
    C1990  O5326     0.63735      .   S
    C1967  O5326     0.63735      .   S
    C1990  O5327     0.94911      .   S
    C3212  O5327     0.94911      .   S
    C820   O5328     0.63735  1_545   S
    C797   O5328     0.63735      .   S
    C820   O5329     0.94911      .   S
    C3204  O5329     0.94911      .   S
    C797   O5330     0.63626      .   S
    C821   O5330     0.63626      .   S
    C1317  O5331     0.63637      .   S
    C1341  O5331     0.63637      .   S
    C1967  O5332     0.63643      .   S
    C1991  O5332     0.63643      .   S
    C2292  O5333     0.63637      .   S
    C2316  O5333     0.63637      .   S
    C1057  O5334     0.63643      .   S
    C1081  O5334     0.63643      .   S
    C1642  O5335     0.63626      .   S
    C1666  O5335     0.63626      .   S
    C1667  O5336     0.63614      .   S
    C3365  O5336     0.63614      .   S
    C1992  O5337     0.63562      .   S
    C3445  O5337     0.63562      .   S
    C1082  O5338     0.63562      .   S
    C3405  O5338     0.63562      .   S
    C822   O5339     0.63614      .   S
    C3365  O5339     0.63614      .   S
    C1342  O5340     0.63617      .   S
    C3445  O5340     0.63617      .   S
    C2317  O5341     0.63617      .   S
    C3405  O5341     0.63617      .   S
    C587   O5342     0.69784      .   S
    C2732  O5342     0.69784      .   S
    C587   O5343     0.54169      .   S
    C633   O5343     0.54169      .   S
    C262   O5344     0.69784      .   S
    C2992  O5344     0.69784      .   S
    C262   O5345     0.54154      .   S
    C308   O5345     0.54154      .   S
    C2472  O5346     0.69784      .   S
    C197   O5346     0.69784      .   S
    C2472  O5347     0.54175      .   S
    C2518  O5347     0.54175      .   S
    C2732  O5348     0.54154      .   S
    C2778  O5348     0.54154      .   S
    C197   O5349     0.54175      .   S
    C243   O5349     0.54175      .   S
    C2992  O5350     0.54169      .   S
    C3038  O5350     0.54169      .   S
    C2501  O5351     0.93478      .   S
    C3127  O5351     0.93478      .   S
    C616   O5352     0.93478      .   S
    C3129  O5352     0.93478      .   S
    C291   O5353     0.93478      .   S
    C3124  O5353     0.93478      .   S
    C226   O5354     0.93478      .   S
    C3123  O5354     0.93478      .   S
    C3021  O5355     0.93478      .   S
    C3130  O5355     0.93478      .   S
    C2761  O5356     0.93478      .   S
    C3120  O5356     0.93478      .   S
    C3445  O5357     0.75176      .   S
    C3446  O5357     0.75176      .   S
    C3365  O5358     0.75176      .   S
    C3366  O5358     0.75176      .   S
    C3405  O5359     0.75176      .   S
    C3406  O5359     0.75176      .   S
    C2700  O5360     0.63418      .   S
    C656   O5360     0.63418      .   S
    C2700  O5361     0.93581      .   S
    C3340  O5361     0.93581      .   S
    C2960  O5362     0.63396      .   S
    C461   O5362     0.63396      .   S
    C2960  O5363     0.93603      .   S
    C3310  O5363     0.93603      .   S
    C685   O5364     0.63396      .   S
    C2671  O5364     0.63396      .   S
    C685   O5365     0.93603      .   S
    C3340  O5365     0.93603      .   S
    C490   O5366     0.63418      .   S
    C2931  O5366     0.63418      .   S
    C490   O5367     0.93581      .   S
    C3310  O5367     0.93581      .   S
    C35    O5368     0.63388      .   S
    C2411  O5368     0.63388      .   S
    C35    O5369     0.93604      .   S
    C3240  O5369     0.93604      .   S
    C2440  O5370     0.63388      .   S
    C6     O5370     0.63388      .   S
    C2440  O5371     0.93604      .   S
    C3240  O5371     0.93604      .   S
    C3123  O5372     0.93534      .   S
    C2698  O5372     0.93534      .   S
    C3123  O5373     0.93478      .   S
    C2696  O5373     0.93478      .   S
    C3124  O5374     0.93534      .   S
    C2438  O5374     0.93534      .   S
    C3124  O5375     0.93478      .   S
    C2436  O5375     0.93478      .   S
    C3127  O5376     0.93534      .   S
    C488   O5376     0.93534      .   S
    C3127  O5377     0.93478      .   S
    C486   O5377     0.93478      .   S
    C3129  O5378     0.93534      .   S
    C2958  O5378     0.93534      .   S
    C3129  O5379     0.93478      .   S
    C2956  O5379     0.93478      .   S
    C3120  O5380     0.93534      .   S
    C33    O5380     0.93534      .   S
    C3120  O5381     0.93478      .   S
    C31    O5381     0.93478      .   S
    C3130  O5382     0.93534      .   S
    C683   O5382     0.93534      .   S
    C3130  O5383     0.93478      .   S
    C681   O5383     0.93478      .   S
    C3366  O5384     0.70434      .   S
    C801   O5384     0.70434      .   S
    C3366  O5385     0.70434      .   S
    C1646  O5385     0.70434      .   S
    C3446  O5386     0.70461      .   S
    C1321  O5386     0.70461      .   S
    C3446  O5387     0.70434      .   S
    C1971  O5387     0.70434      .   S
    C3406  O5388     0.70461      .   S
    C2296  O5388     0.70461      .   S
    C3406  O5389     0.70434      .   S
    C1061  O5389     0.70434      .   S
    C1684  O5390     0.54130      .   S
    C1646  O5390     0.54130      .   S
    C839   O5391     0.54130      .   S
    C801   O5391     0.54130      .   S
    C1099  O5392     0.54130      .   S
    C1061  O5392     0.54130      .   S
    C2334  O5393     0.54130      .   S
    C2296  O5393     0.54130      .   S
    C2009  O5394     0.54130      .   S
    C1971  O5394     0.54130      .   S
    C1359  O5395     0.54130      .   S
    C1321  O5395     0.54130      .   S
    C2411  O5396     0.63551      .   S
    C2439  O5396     0.63551      .   S
    C461   O5397     0.63542      .   S
    C489   O5397     0.63542      .   S
    C6     O5398     0.63551      .   S
    C34    O5398     0.63551      .   S
    C2931  O5399     0.63536      .   S
    C2959  O5399     0.63536      .   S
    C2671  O5400     0.63542      .   S
    C2699  O5400     0.63542      .   S
    C656   O5401     0.63536      .   S
    C684   O5401     0.63536      .   S
    C812   O5402     0.63450      .   S
    C3361  O5402     0.63450      .   S
    C2307  O5403     0.63450      .   S
    C3401  O5403     0.63450      .   S
    C1657  O5404     0.63450      .   S
    C3361  O5404     0.63450      .   S
    C1072  O5405     0.63450      .   S
    C3401  O5405     0.63450      .   S
    C1332  O5406     0.63450      .   S
    C3441  O5406     0.63450      .   S
    C1982  O5407     0.63450      .   S
    C3441  O5407     0.63450      .   S
    C1321  O5408     0.70347      .   S
    C1322  O5408     0.70347      .   S
    C2296  O5409     0.70347      .   S
    C2297  O5409     0.70347      .   S
    C801   O5410     0.70347      .   S
    C802   O5410     0.70347      .   S
    C1061  O5411     0.70347      .   S
    C1062  O5411     0.70347      .   S
    C1971  O5412     0.70347      .   S
    C1972  O5412     0.70347      .   S
    C1646  O5413     0.70347      .   S
    C1647  O5413     0.70347      .   S
    C1666  O5414     0.94461      .   S
    C3229  O5414     0.94461      .   S
    C2316  O5415     0.94453      .   S
    C3233  O5415     0.94453      .   S
    C821   O5416     0.94461      .   S
    C3228  O5416     0.94461      .   S
    C1081  O5417     0.94466      .   S
    C3232  O5417     0.94466      .   S
    C1341  O5418     0.94453      .   S
    C3236  O5418     0.94453      .   S
    C1991  O5419     0.94466      .   S
    C3237  O5419     0.94466      .   S
    C3204  O5420     0.94911      .   S
    C885   O5420     0.94911      .   S
    C3204  O5421     0.94911      .   S
    C1600  O5421     0.94911      .   S
    C3208  O5422     0.94911      .   S
    C2250  O5422     0.94911      .   S
    C3208  O5423     0.94911      .   S
    C1145  O5423     0.94911      .   S
    C3212  O5424     0.94911      .   S
    C1405  O5424     0.94911      .   S
    C3212  O5425     0.94911      .   S
    C2055  O5425     0.94911      .   S
    C2958  O5426     0.63424      .   S
    C3313  O5426     0.63424      .   S
    C488   O5427     0.63396      .   S
    C3313  O5427     0.63396      .   S
    C683   O5428     0.63424      .   S
    C3343  O5428     0.63424      .   S
    C33    O5429     0.63398      .   S
    C3243  O5429     0.63398      .   S
    C2698  O5430     0.63396      .   S
    C3343  O5430     0.63396      .   S
    C2438  O5431     0.63398      .   S
    C3243  O5431     0.63398      .   S
    C802   O5432     0.54154      .   S
    C840   O5432     0.54154      .   S
    C802   O5433     0.70659      .   S
    C3368  O5433     0.70659      .   S
    C1647  O5434     0.54154      .   S
    C1685  O5434     0.54154      .   S
    C1647  O5435     0.70659      .   S
    C3368  O5435     0.70659      .   S
    C2297  O5436     0.54154      .   S
    C2335  O5436     0.54154      .   S
    C2297  O5437     0.70659      .   S
    C3408  O5437     0.70659      .   S
    C1972  O5438     0.54154      .   S
    C2010  O5438     0.54154      .   S
    C1972  O5439     0.70659      .   S
    C3448  O5439     0.70659      .   S
    C1062  O5440     0.54154      .   S
    C1100  O5440     0.54154      .   S
    C1062  O5441     0.70659      .   S
    C3408  O5441     0.70659      .   S
    C1322  O5442     0.54154      .   S
    C1360  O5442     0.54154      .   S
    C1322  O5443     0.70659      .   S
    C3448  O5443     0.70659      .   S
    C3361  O5444     0.74058      .   S
    C3362  O5444     0.74058      .   S
    C3401  O5445     0.74058      .   S
    C3402  O5445     0.74058      .   S
    C3441  O5446     0.74058      .   S
    C3442  O5446     0.74058      .   S
    C3243  O5447     0.74078      .   S
    C3244  O5447     0.74078      .   S
    C3313  O5448     0.74027      .   S
    C3314  O5448     0.74027      .   S
    C3343  O5449     0.74027      .   S
    C3344  O5449     0.74027      .   S
    C3408  O5450     0.71274      .   S
    C3407  O5450     0.71274      .   S
    C3368  O5451     0.71274      .   S
    C3367  O5451     0.71274      .   S
    C3448  O5452     0.71274      .   S
    C3447  O5452     0.71274      .   S
    C3240  O5453     0.93494      .   S
    C2449  O5453     0.93494      .   S
    C3240  O5454     0.93494      .   S
    C44    O5454     0.93494      .   S
    C3340  O5455     0.93544      .   S
    C694   O5455     0.93544      .   S
    C3340  O5456     0.93501      .   S
    C2709  O5456     0.93501      .   S
    C3310  O5457     0.93501      .   S
    C499   O5457     0.93501      .   S
    C3310  O5458     0.93544      .   S
    C2969  O5458     0.93544      .   S
    C489   O5459     0.94352      .   S
    C456   O5459     0.94352      .   S
    C2439  O5460     0.94357      .   S
    C2406  O5460     0.94357      .   S
    C2699  O5461     0.94352      .   S
    C2666  O5461     0.94352      .   S
    C34    O5462     0.94357      .   S
    C1     O5462     0.94357      .   S
    C2959  O5463     0.94364      .   S
    C2926  O5463     0.94364      .   S
    C684   O5464     0.94364      .   S
    C651   O5464     0.94364      .   S
    C3344  O5465     0.70306      .   S
    C2669  O5465     0.70306      .   S
    C3344  O5466     0.70279      .   S
    C654   O5466     0.70279      .   S
    C3244  O5467     0.70279      .   S
    C2409  O5467     0.70279      .   S
    C3244  O5468     0.70279      .   S
    C4     O5468     0.70279      .   S
    C3314  O5469     0.70306      .   S
    C459   O5469     0.70306      .   S
    C3314  O5470     0.70279      .   S
    C2929  O5470     0.70279      .   S
    C3447  O5471     0.63651      .   S
    C1343  O5471     0.63651      .   S
    C3447  O5472     0.63651      .   S
    C1993  O5472     0.63651      .   S
    C3407  O5473     0.63651      .   S
    C1083  O5473     0.63651      .   S
    C3407  O5474     0.63651      .   S
    C2318  O5474     0.63651      .   S
    C3367  O5475     0.63651      .   S
    C823   O5475     0.63651      .   S
    C3367  O5476     0.63651      .   S
    C1668  O5476     0.63651      .   S
    C2250  O5477     0.63735      .   S
    C2227  O5477     0.63735      .   S
    C1405  O5478     0.63735      .   S
    C1382  O5478     0.63735      .   S
    C2055  O5479     0.63735  1_455   S
    C2032  O5479     0.63735      .   S
    C885   O5480     0.63735  1_455   S
    C862   O5480     0.63735      .   S
    C1600  O5481     0.63735  1_545   S
    C1577  O5481     0.63735      .   S
    C1145  O5482     0.63735  1_545   S
    C1122  O5482     0.63735      .   S
    C2455  O5483     0.54169      .   S
    C2409  O5483     0.54169      .   S
    C700   O5484     0.54169      .   S
    C654   O5484     0.54169      .   S
    C2975  O5485     0.54169      .   S
    C2929  O5485     0.54169      .   S
    C2715  O5486     0.54169      .   S
    C2669  O5486     0.54169      .   S
    C50    O5487     0.54169      .   S
    C4     O5487     0.54169      .   S
    C505   O5488     0.54169      .   S
    C459   O5488     0.54169      .   S
    C3209  O5489     0.96312      .   S
    C3233  O5489     0.96312      .   S
    C3209  O5490     0.96312  1_565   S
    C3232  O5490     0.96312      .   S
    C3213  O5491     0.96312      .   S
    C3236  O5491     0.96312      .   S
    C3213  O5492     0.96312  1_655   S
    C3237  O5492     0.96312      .   S
    C3205  O5493     0.96312  1_565   S
    C3229  O5493     0.96312      .   S
    C3205  O5494     0.96312  1_655   S
    C3228  O5494     0.96312      .   S
    C31    O5495     0.63422      .   S
    C3480  O5495     0.63422      .   S
    C2436  O5496     0.63422      .   S
    C3480  O5496     0.63422      .   S
    C2956  O5497     0.63422      .   S
    C3494  O5497     0.63422      .   S
    C2696  O5498     0.63422      .   S
    C3500  O5498     0.63422      .   S
    C681   O5499     0.63422      .   S
    C3500  O5499     0.63422      .   S
    C486   O5500     0.63422      .   S
    C3494  O5500     0.63422      .   S
    C1343  O5501     0.94522      .   S
    C3236  O5501     0.94522      .   S
    C1993  O5502     0.94522  1_655   S
    C3237  O5502     0.94522      .   S
    C1083  O5503     0.94522  1_565   S
    C3232  O5503     0.94522      .   S
    C823   O5504     0.94522  1_655   S
    C3228  O5504     0.94522      .   S
    C2318  O5505     0.94522      .   S
    C3233  O5505     0.94522      .   S
    C1668  O5506     0.94522  1_565   S
    C3229  O5506     0.94522      .   S
    C459   O5507     0.69792      .   S
    C458   O5507     0.69792      .   S
    C2669  O5508     0.69792      .   S
    C2668  O5508     0.69792      .   S
    C2409  O5509     0.69792      .   S
    C2408  O5509     0.69792      .   S
    C4     O5510     0.69792      .   S
    C3     O5510     0.69792      .   S
    C2929  O5511     0.69792      .   S
    C2928  O5511     0.69792      .   S
    C654   O5512     0.69792      .   S
    C653   O5512     0.69792      .   S
    C499   O5513     0.63336      .   S
    C479   O5513     0.63336      .   S
    C694   O5514     0.63314      .   S
    C674   O5514     0.63314      .   S
    C2449  O5515     0.63319      .   S
    C2429  O5515     0.63319      .   S
    C2709  O5516     0.63336      .   S
    C2689  O5516     0.63336      .   S
    C44    O5517     0.63319      .   S
    C24    O5517     0.63319      .   S
    C2969  O5518     0.63314      .   S
    C2949  O5518     0.63314      .   S
    C3362  O5519     0.70302      .   S
    C783   O5519     0.70302      .   S
    C3362  O5520     0.70302      .   S
    C1628  O5520     0.70302      .   S
    C3442  O5521     0.70302      .   S
    C1303  O5521     0.70302      .   S
    C3442  O5522     0.70302      .   S
    C1953  O5522     0.70302      .   S
    C3402  O5523     0.70302      .   S
    C1043  O5523     0.70302      .   S
    C3402  O5524     0.70302      .   S
    C2278  O5524     0.70302      .   S
    C3480  O5525     0.70311      .   S
    C3481  O5525     0.70311      .   S
    C3494  O5526     0.70311      .   S
    C3495  O5526     0.70311      .   S
    C3500  O5527     0.70311      .   S
    C3501  O5527     0.70311      .   S
    C3236  O5528     0.94453      .   S
    C2056  O5528     0.94453      .   S
    C3236  O5529     0.94522      .   S
    C2058  O5529     0.94522      .   S
    C3237  O5530     0.94466      .   S
    C1406  O5530     0.94466      .   S
    C3237  O5531     0.94522      .   S
    C1408  O5531     0.94522  1_655   S
    C3233  O5532     0.94453      .   S
    C1146  O5532     0.94453      .   S
    C3233  O5533     0.94522      .   S
    C1148  O5533     0.94522      .   S
    C3232  O5534     0.94466      .   S
    C2251  O5534     0.94466      .   S
    C3232  O5535     0.94522      .   S
    C2253  O5535     0.94522  1_565   S
    C3229  O5536     0.94483      .   S
    C886   O5536     0.94483      .   S
    C3229  O5537     0.94522      .   S
    C888   O5537     0.94522  1_565   S
    C3228  O5538     0.94483      .   S
    C1601  O5538     0.94483      .   S
    C3228  O5539     0.94522      .   S
    C1603  O5539     0.94522  1_655   S
    C653   O5540     0.54147      .   S
    C699   O5540     0.54147      .   S
    C653   O5541     0.70302      .   S
    C3342  O5541     0.70302      .   S
    C458   O5542     0.54175      .   S
    C504   O5542     0.54175      .   S
    C458   O5543     0.70302      .   S
    C3312  O5543     0.70302      .   S
    C2928  O5544     0.54147      .   S
    C2974  O5544     0.54147      .   S
    C2928  O5545     0.70302      .   S
    C3312  O5545     0.70302      .   S
    C3     O5546     0.54148      .   S
    C49    O5546     0.54148      .   S
    C3     O5547     0.70302      .   S
    C3242  O5547     0.70302      .   S
    C2668  O5548     0.54175      .   S
    C2714  O5548     0.54175      .   S
    C2668  O5549     0.70302      .   S
    C3342  O5549     0.70302      .   S
    C2408  O5550     0.54148      .   S
    C2454  O5550     0.54148      .   S
    C2408  O5551     0.70302      .   S
    C3242  O5551     0.70302      .   S
    C1421  O5552     0.54109      .   S
    C1381  O5552     0.54109      .   S
    C2071  O5553     0.54149  1_455   S
    C2031  O5553     0.54149      .   S
    C901   O5554     0.54146  1_455   S
    C861   O5554     0.54146      .   S
    C2266  O5555     0.54109      .   S
    C2226  O5555     0.54109      .   S
    C1616  O5556     0.54146  1_545   S
    C1576  O5556     0.54146      .   S
    C1161  O5557     0.54149  1_545   S
    C1121  O5557     0.54149      .   S
    C1089  O5558     0.54147      .   S
    C1043  O5558     0.54147      .   S
    C1674  O5559     0.54153      .   S
    C1628  O5559     0.54153      .   S
    C829   O5560     0.54153      .   S
    C783   O5560     0.54153      .   S
    C1999  O5561     0.54147      .   S
    C1953  O5561     0.54147      .   S
    C2324  O5562     0.54175      .   S
    C2278  O5562     0.54175      .   S
    C1349  O5563     0.54175      .   S
    C1303  O5563     0.54175      .   S
    C3312  O5564     0.74058      .   S
    C3311  O5564     0.74058      .   S
    C3342  O5565     0.74058      .   S
    C3341  O5565     0.74058      .   S
    C3242  O5566     0.74058      .   S
    C3241  O5566     0.74058      .   S
    C2227  O5567     0.63643      .   S
    C2251  O5567     0.63643      .   S
    C2227  O5568     0.75417      .   S
    C2228  O5568     0.75417      .   S
    C1122  O5569     0.63637      .   S
    C1146  O5569     0.63637      .   S
    C1122  O5570     0.75417      .   S
    C1123  O5570     0.75417      .   S
    C1382  O5571     0.63643      .   S
    C1406  O5571     0.63643      .   S
    C1382  O5572     0.75417      .   S
    C1383  O5572     0.75417      .   S
    C2032  O5573     0.63637      .   S
    C2056  O5573     0.63637      .   S
    C2032  O5574     0.75417      .   S
    C2033  O5574     0.75417      .   S
    C862   O5575     0.63614      .   S
    C886   O5575     0.63614      .   S
    C862   O5576     0.75417      .   S
    C863   O5576     0.75417      .   S
    C1577  O5577     0.63614      .   S
    C1601  O5577     0.63614      .   S
    C1577  O5578     0.75417      .   S
    C1578  O5578     0.75417      .   S
    C3249  O5579     0.96297      .   S
    C1     O5579     0.96297      .   S
    C3249  O5580     0.96297      .   S
    C2406  O5580     0.96297      .   S
    C3349  O5581     0.96303      .   S
    C2666  O5581     0.96303      .   S
    C3349  O5582     0.96249      .   S
    C651   O5582     0.96249      .   S
    C3319  O5583     0.96249      .   S
    C2926  O5583     0.96249      .   S
    C3319  O5584     0.96303      .   S
    C456   O5584     0.96303      .   S
    C3241  O5585     0.63450      .   S
    C2437  O5585     0.63450      .   S
    C3241  O5586     0.63450      .   S
    C32    O5586     0.63450      .   S
    C3311  O5587     0.63450      .   S
    C487   O5587     0.63450      .   S
    C3311  O5588     0.63450      .   S
    C2957  O5588     0.63450      .   S
    C3341  O5589     0.63450      .   S
    C682   O5589     0.63450      .   S
    C3341  O5590     0.63450      .   S
    C2697  O5590     0.63450      .   S
    C1303  O5591     0.69792      .   S
    C1304  O5591     0.69792      .   S
    C1953  O5592     0.69792      .   S
    C1954  O5592     0.69792      .   S
    C1043  O5593     0.69792      .   S
    C1044  O5593     0.69792      .   S
    C783   O5594     0.69792      .   S
    C784   O5594     0.69792      .   S
    C2278  O5595     0.69792      .   S
    C2279  O5595     0.69792      .   S
    C1628  O5596     0.69792      .   S
    C1629  O5596     0.69792      .   S
    C61    O5597     0.54159      .   S
    C23    O5597     0.54159      .   S
    C2726  O5598     0.54140      .   S
    C2688  O5598     0.54140      .   S
    C516   O5599     0.54140      .   S
    C478   O5599     0.54140      .   S
    C2986  O5600     0.54165      .   S
    C2948  O5600     0.54165      .   S
    C711   O5601     0.54165      .   S
    C673   O5601     0.54165      .   S
    C2466  O5602     0.54159      .   S
    C2428  O5602     0.54159      .   S
    C682   O5603     0.93594      .   S
    C651   O5603     0.93594      .   S
    C2437  O5604     0.93573      .   S
    C2406  O5604     0.93573      .   S
    C2697  O5605     0.93603      .   S
    C2666  O5605     0.93603      .   S
    C487   O5606     0.93603      .   S
    C456   O5606     0.93603      .   S
    C2957  O5607     0.93594      .   S
    C2926  O5607     0.93594      .   S
    C32    O5608     0.93573      .   S
    C1     O5608     0.93573      .   S
    C2429  O5609     0.63497      .   S
    C45    O5609     0.63497      .   S
    C2429  O5610     0.73985      .   S
    C2430  O5610     0.73985      .   S
    C2689  O5611     0.63525      .   S
    C695   O5611     0.63525      .   S
    C2689  O5612     0.73985      .   S
    C2690  O5612     0.73985      .   S
    C479   O5613     0.63525      .   S
    C2970  O5613     0.63525      .   S
    C479   O5614     0.73985      .   S
    C480   O5614     0.73985      .   S
    C2949  O5615     0.63519      .   S
    C500   O5615     0.63519      .   S
    C2949  O5616     0.73985      .   S
    C2950  O5616     0.73985      .   S
    C24    O5617     0.63497      .   S
    C2450  O5617     0.63497      .   S
    C24    O5618     0.73985      .   S
    C25    O5618     0.73985      .   S
    C674   O5619     0.63519      .   S
    C2710  O5619     0.63519      .   S
    C674   O5620     0.73985      .   S
    C675   O5620     0.73985      .   S
    C861   O5621     0.70551      .   S
    C863   O5621     0.70551      .   S
    C861   O5622     0.70600      .   S
    C858   O5622     0.70600      .   S
    C1576  O5623     0.70551      .   S
    C1578  O5623     0.70551      .   S
    C1576  O5624     0.70600      .   S
    C1573  O5624     0.70600      .   S
    C1381  O5625     0.70580      .   S
    C1383  O5625     0.70580      .   S
    C1381  O5626     0.70600      .   S
    C1378  O5626     0.70600      .   S
    C1121  O5627     0.70575      .   S
    C1123  O5627     0.70575      .   S
    C1121  O5628     0.70600      .   S
    C1118  O5628     0.70600      .   S
    C2031  O5629     0.70575      .   S
    C2033  O5629     0.70575      .   S
    C2031  O5630     0.70600      .   S
    C2028  O5630     0.70600      .   S
    C2226  O5631     0.70580      .   S
    C2228  O5631     0.70580      .   S
    C2226  O5632     0.70600      .   S
    C2223  O5632     0.70600      .   S
    C2926  O5633     0.93616      .   S
    C2970  O5633     0.93616      .   S
    C2926  O5634     0.94495      .   S
    C2967  O5634     0.94495      .   S
    C1     O5635     0.93653      .   S
    C45    O5635     0.93653      .   S
    C1     O5636     0.94495      .   S
    C42    O5636     0.94495      .   S
    C2406  O5637     0.93653      .   S
    C2450  O5637     0.93653      .   S
    C2406  O5638     0.94495      .   S
    C2447  O5638     0.94495      .   S
    C2666  O5639     0.93592      .   S
    C2710  O5639     0.93592      .   S
    C2666  O5640     0.94495      .   S
    C2707  O5640     0.94495      .   S
    C456   O5641     0.93592      .   S
    C500   O5641     0.93592      .   S
    C456   O5642     0.94495      .   S
    C497   O5642     0.94495      .   S
    C651   O5643     0.93616      .   S
    C695   O5643     0.93616      .   S
    C651   O5644     0.94495      .   S
    C692   O5644     0.94495      .   S
    C1383  O5645     0.70505      .   S
    C1385  O5645     0.70505      .   S
    C2033  O5646     0.70505      .   S
    C2035  O5646     0.70505      .   S
    C863   O5647     0.70505      .   S
    C865   O5647     0.70505      .   S
    C1123  O5648     0.70505      .   S
    C1125  O5648     0.70505      .   S
    C2228  O5649     0.70505      .   S
    C2230  O5649     0.70505      .   S
    C1578  O5650     0.70505      .   S
    C1580  O5650     0.70505      .   S
    C3481  O5651     0.70424      .   S
    C2     O5651     0.70424      .   S
    C3481  O5652     0.70424      .   S
    C2407  O5652     0.70424      .   S
    C3495  O5653     0.70445      .   S
    C2927  O5653     0.70445      .   S
    C3495  O5654     0.70418      .   S
    C457   O5654     0.70418      .   S
    C3501  O5655     0.70445      .   S
    C652   O5655     0.70445      .   S
    C3501  O5656     0.70418      .   S
    C2667  O5656     0.70418      .   S
    C2428  O5657     0.70508      .   S
    C2430  O5657     0.70508      .   S
    C2428  O5658     0.70119      .   S
    C2431  O5658     0.70119      .   S
    C2688  O5659     0.70508      .   S
    C2690  O5659     0.70508      .   S
    C2688  O5660     0.70119      .   S
    C2691  O5660     0.70119      .   S
    C23    O5661     0.70508      .   S
    C25    O5661     0.70508      .   S
    C23    O5662     0.70119      .   S
    C26    O5662     0.70119      .   S
    C478   O5663     0.70508      .   S
    C480   O5663     0.70508      .   S
    C478   O5664     0.70119      .   S
    C481   O5664     0.70119      .   S
    C673   O5665     0.70508      .   S
    C675   O5665     0.70508      .   S
    C673   O5666     0.70119      .   S
    C676   O5666     0.70119      .   S
    C2948  O5667     0.70508      .   S
    C2950  O5667     0.70508      .   S
    C2948  O5668     0.70119      .   S
    C2951  O5668     0.70119      .   S
    C2973  O5669     0.54147      .   S
    C2927  O5669     0.54147      .   S
    C503   O5670     0.54175      .   S
    C457   O5670     0.54175      .   S
    C2713  O5671     0.54175      .   S
    C2667  O5671     0.54175      .   S
    C698   O5672     0.54147      .   S
    C652   O5672     0.54147      .   S
    C48    O5673     0.54154      .   S
    C2     O5673     0.54154      .   S
    C2453  O5674     0.54154      .   S
    C2407  O5674     0.54154      .   S
    C2430  O5675     0.70038      .   S
    C2434  O5675     0.70038      .   S
    C480   O5676     0.70056      .   S
    C484   O5676     0.70056      .   S
    C675   O5677     0.70031      .   S
    C679   O5677     0.70031      .   S
    C25    O5678     0.70038      .   S
    C29    O5678     0.70038      .   S
    C2690  O5679     0.70056      .   S
    C2694  O5679     0.70056      .   S
    C2950  O5680     0.70031      .   S
    C2954  O5680     0.70031      .   S
    C900   O5681     0.54117      .   S
    C858   O5681     0.54117      .   S
    C1615  O5682     0.54117      .   S
    C1573  O5682     0.54117      .   S
    C2070  O5683     0.54117      .   S
    C2028  O5683     0.54117      .   S
    C1160  O5684     0.54117      .   S
    C1118  O5684     0.54117      .   S
    C1420  O5685     0.54117      .   S
    C1378  O5685     0.54117      .   S
    C2265  O5686     0.54117      .   S
    C2223  O5686     0.54117      .   S
    C1304  O5687     0.54169      .   S
    C1350  O5687     0.54169      .   S
    C1304  O5688     0.70306      .   S
    C3444  O5688     0.70306      .   S
    C1954  O5689     0.54169      .   S
    C2000  O5689     0.54169      .   S
    C1954  O5690     0.70279      .   S
    C3444  O5690     0.70279      .   S
    C1044  O5691     0.54169      .   S
    C1090  O5691     0.54169      .   S
    C1044  O5692     0.70279      .   S
    C3404  O5692     0.70279      .   S
    C2279  O5693     0.54169      .   S
    C2325  O5693     0.54169      .   S
    C2279  O5694     0.70306      .   S
    C3404  O5694     0.70306      .   S
    C784   O5695     0.54169      .   S
    C830   O5695     0.54169      .   S
    C784   O5696     0.70283      .   S
    C3364  O5696     0.70283      .   S
    C1629  O5697     0.54169      .   S
    C1675  O5697     0.54169      .   S
    C1629  O5698     0.70283      .   S
    C3364  O5698     0.70283      .   S
    C1573  O5699     0.70558      .   S
    C1575  O5699     0.70558      .   S
    C1118  O5700     0.70555      .   S
    C1120  O5700     0.70555      .   S
    C2223  O5701     0.70575      .   S
    C2225  O5701     0.70575      .   S
    C2028  O5702     0.70555      .   S
    C2030  O5702     0.70555      .   S
    C1378  O5703     0.70575      .   S
    C1380  O5703     0.70575      .   S
    C858   O5704     0.70558      .   S
    C860   O5704     0.70558      .   S
    C712   O5705     0.54157      .   S
    C676   O5705     0.54157      .   S
    C517   O5706     0.54167      .   S
    C481   O5706     0.54167      .   S
    C2467  O5707     0.54137      .   S
    C2431  O5707     0.54137      .   S
    C62    O5708     0.54137      .   S
    C26    O5708     0.54137      .   S
    C2727  O5709     0.54167      .   S
    C2691  O5709     0.54167      .   S
    C2987  O5710     0.54157      .   S
    C2951  O5710     0.54157      .   S
    C652   O5711     0.69784      .   S
    C2602  O5711     0.69784      .   S
    C2     O5712     0.69784      .   S
    C2342  O5712     0.69784      .   S
    C2667  O5713     0.69784      .   S
    C717   O5713     0.69784      .   S
    C2407  O5714     0.69784      .   S
    C67    O5714     0.69784      .   S
    C2927  O5715     0.69784      .   S
    C392   O5715     0.69784      .   S
    C457   O5716     0.69784      .   S
    C2862  O5716     0.69784      .   S
    C2058  O5717     0.63651      .   S
    C3457  O5717     0.63651      .   S
    C1603  O5718     0.63651      .   S
    C3377  O5718     0.63651      .   S
    C1148  O5719     0.63651      .   S
    C3417  O5719     0.63651      .   S
    C888   O5720     0.63651      .   S
    C3377  O5720     0.63651      .   S
    C2253  O5721     0.63651      .   S
    C3417  O5721     0.63651      .   S
    C1408  O5722     0.63651      .   S
    C3457  O5722     0.63651      .   S
    C2431  O5723     0.70213      .   S
    C2433  O5723     0.70213      .   S
    C2951  O5724     0.70213      .   S
    C2953  O5724     0.70213      .   S
    C2691  O5725     0.70213      .   S
    C2693  O5725     0.70213      .   S
    C676   O5726     0.70213      .   S
    C678   O5726     0.70213      .   S
    C26    O5727     0.70213      .   S
    C28    O5727     0.70213      .   S
    C481   O5728     0.70213      .   S
    C483   O5728     0.70213      .   S
    C1125  O5729     0.54121      .   S
    C1163  O5729     0.54121      .   S
    C1125  O5730     0.70324      .   S
    C1124  O5730     0.70324      .   S
    C2035  O5731     0.54121      .   S
    C2073  O5731     0.54121      .   S
    C2035  O5732     0.70324      .   S
    C2034  O5732     0.70324      .   S
    C1385  O5733     0.54115      .   S
    C1423  O5733     0.54115      .   S
    C1385  O5734     0.70324      .   S
    C1384  O5734     0.70324      .   S
    C1580  O5735     0.54145      .   S
    C1618  O5735     0.54145      .   S
    C1580  O5736     0.70324      .   S
    C1579  O5736     0.70324      .   S
    C865   O5737     0.54145      .   S
    C903   O5737     0.54145      .   S
    C865   O5738     0.70324      .   S
    C864   O5738     0.70324      .   S
    C2230  O5739     0.54115      .   S
    C2268  O5739     0.54115      .   S
    C2230  O5740     0.70324      .   S
    C2229  O5740     0.70324      .   S
    C3364  O5741     0.74063      .   S
    C3363  O5741     0.74063      .   S
    C3444  O5742     0.74027      .   S
    C3443  O5742     0.74027      .   S
    C3404  O5743     0.74027      .   S
    C3403  O5743     0.74027      .   S
    C2434  O5744     0.54177      .   S
    C2468  O5744     0.54177      .   S
    C2434  O5745     0.69514      .   S
    C2435  O5745     0.69514      .   S
    C484   O5746     0.54146      .   S
    C518   O5746     0.54146      .   S
    C484   O5747     0.69514      .   S
    C485   O5747     0.69514      .   S
    C679   O5748     0.54156      .   S
    C713   O5748     0.54156      .   S
    C679   O5749     0.69514      .   S
    C680   O5749     0.69514      .   S
    C2694  O5750     0.54146      .   S
    C2728  O5750     0.54146      .   S
    C2694  O5751     0.69514      .   S
    C2695  O5751     0.69514      .   S
    C2954  O5752     0.54156      .   S
    C2988  O5752     0.54156      .   S
    C2954  O5753     0.69514      .   S
    C2955  O5753     0.69514      .   S
    C29    O5754     0.54177      .   S
    C63    O5754     0.54177      .   S
    C29    O5755     0.69514      .   S
    C30    O5755     0.69514      .   S
    C3457  O5756     0.71274      .   S
    C3458  O5756     0.71274      .   S
    C3417  O5757     0.71274      .   S
    C3418  O5757     0.71274      .   S
    C3377  O5758     0.71274      .   S
    C3378  O5758     0.71274      .   S
    C2225  O5759     0.70517      .   S
    C2229  O5759     0.70517      .   S
    C2225  O5760     0.75436      .   S
    C2224  O5760     0.75436      .   S
    C860   O5761     0.70517      .   S
    C864   O5761     0.70517      .   S
    C860   O5762     0.75436      .   S
    C859   O5762     0.75436      .   S
    C1380  O5763     0.70517      .   S
    C1384  O5763     0.70517      .   S
    C1380  O5764     0.75436      .   S
    C1379  O5764     0.75436      .   S
    C2030  O5765     0.70517      .   S
    C2034  O5765     0.70517      .   S
    C2030  O5766     0.75436      .   S
    C2029  O5766     0.75436      .   S
    C1120  O5767     0.70517      .   S
    C1124  O5767     0.70517      .   S
    C1120  O5768     0.75436      .   S
    C1119  O5768     0.75436      .   S
    C1575  O5769     0.70517      .   S
    C1579  O5769     0.70517      .   S
    C1575  O5770     0.75436      .   S
    C1574  O5770     0.75436      .   S
    C692   O5771     0.63562      .   S
    C3345  O5771     0.63562      .   S
    C2447  O5772     0.63589      .   S
    C3245  O5772     0.63589      .   S
    C497   O5773     0.63617      .   S
    C3315  O5773     0.63617      .   S
    C42    O5774     0.63589      .   S
    C3245  O5774     0.63589      .   S
    C2967  O5775     0.63562      .   S
    C3315  O5775     0.63562      .   S
    C2707  O5776     0.63617      .   S
    C3345  O5776     0.63617      .   S
    C2433  O5777     0.70409      .   S
    C2435  O5777     0.70409      .   S
    C2433  O5778     0.74064      .   S
    C1392  O5778     0.74064      .   S
    C28    O5779     0.70409      .   S
    C30    O5779     0.70409      .   S
    C28    O5780     0.74064      .   S
    C2237  O5780     0.74064      .   S
    C678   O5781     0.70430      .   S
    C680   O5781     0.70430      .   S
    C678   O5782     0.74091      .   S
    C2042  O5782     0.74091      .   S
    C2693  O5783     0.70439      .   S
    C2695  O5783     0.70439      .   S
    C2693  O5784     0.74077      .   S
    C872   O5784     0.74077      .   S
    C2953  O5785     0.70430      .   S
    C2955  O5785     0.70430      .   S
    C2953  O5786     0.74091      .   S
    C1132  O5786     0.74091      .   S
    C483   O5787     0.70439      .   S
    C485   O5787     0.70439      .   S
    C483   O5788     0.74077      .   S
    C1587  O5788     0.74077      .   S
    C1579  O5789     0.54131      .   S
    C1617  O5789     0.54131      .   S
    C864   O5790     0.54131      .   S
    C902   O5790     0.54131      .   S
    C1124  O5791     0.54132      .   S
    C1162  O5791     0.54132      .   S
    C2034  O5792     0.54132      .   S
    C2072  O5792     0.54132      .   S
    C2229  O5793     0.54112      .   S
    C2267  O5793     0.54112      .   S
    C1384  O5794     0.54112      .   S
    C1422  O5794     0.54112      .   S
    C680   O5795     0.54169      .   S
    C714   O5795     0.54169      .   S
    C2435  O5796     0.54163      .   S
    C2469  O5796     0.54163      .   S
    C2695  O5797     0.54145      .   S
    C2729  O5797     0.54145      .   S
    C30    O5798     0.54163      .   S
    C64    O5798     0.54163      .   S
    C2955  O5799     0.54169      .   S
    C2989  O5799     0.54169      .   S
    C485   O5800     0.54145      .   S
    C519   O5800     0.54145      .   S
    C2862  O5801     0.54175      .   S
    C2908  O5801     0.54175      .   S
    C2862  O5802     0.70418      .   S
    C3493  O5802     0.70418      .   S
    C392   O5803     0.54147      .   S
    C438   O5803     0.54147      .   S
    C392   O5804     0.70445      .   S
    C3493  O5804     0.70445      .   S
    C2342  O5805     0.54169      .   S
    C2388  O5805     0.54169      .   S
    C2342  O5806     0.70440      .   S
    C3483  O5806     0.70440      .   S
    C67    O5807     0.54169      .   S
    C113   O5807     0.54169      .   S
    C67    O5808     0.70440      .   S
    C3483  O5808     0.70440      .   S
    C2602  O5809     0.54147      .   S
    C2648  O5809     0.54147      .   S
    C2602  O5810     0.70445      .   S
    C3503  O5810     0.70445      .   S
    C717   O5811     0.54175      .   S
    C763   O5811     0.54175      .   S
    C717   O5812     0.70418      .   S
    C3503  O5812     0.70418      .   S
    C1143  O5813     0.63747      .   S
    C1119  O5813     0.63747      .   S
    C1143  O5814     0.95084      .   S
    C1105  O5814     0.95084      .   S
    C2053  O5815     0.63747      .   S
    C2029  O5815     0.63747      .   S
    C2053  O5816     0.95084      .   S
    C2015  O5816     0.95084      .   S
    C883   O5817     0.63747      .   S
    C859   O5817     0.63747      .   S
    C883   O5818     0.95084      .   S
    C845   O5818     0.95084      .   S
    C1598  O5819     0.63747      .   S
    C1574  O5819     0.63747      .   S
    C1598  O5820     0.95084      .   S
    C1560  O5820     0.95084      .   S
    C2248  O5821     0.63747      .   S
    C2224  O5821     0.63747      .   S
    C2248  O5822     0.95084      .   S
    C2210  O5822     0.95084      .   S
    C1403  O5823     0.63747      .   S
    C1379  O5823     0.63747      .   S
    C1403  O5824     0.95084      .   S
    C1365  O5824     0.95084      .   S
    C3363  O5825     0.63402      .   S
    C813   O5825     0.63402      .   S
    C3363  O5826     0.63402      .   S
    C1658  O5826     0.63402      .   S
    C3403  O5827     0.63396      .   S
    C2308  O5827     0.63396      .   S
    C3403  O5828     0.63424      .   S
    C1073  O5828     0.63424      .   S
    C3443  O5829     0.63396      .   S
    C1333  O5829     0.63396      .   S
    C3443  O5830     0.63424      .   S
    C1983  O5830     0.63424      .   S
    C3245  O5831     0.75176      .   S
    C3246  O5831     0.75176      .   S
    C3315  O5832     0.75176      .   S
    C3316  O5832     0.75176      .   S
    C3345  O5833     0.75176      .   S
    C3346  O5833     0.75176      .   S
    C2256  O5834     0.63636      .   S
    C2237  O5834     0.63636      .   S
    C2256  O5835     0.94636      .   S
    C2210  O5835     0.94636      .   S
    C1606  O5836     0.63606      .   S
    C1587  O5836     0.63606      .   S
    C1606  O5837     0.94636      .   S
    C1560  O5837     0.94636      .   S
    C1151  O5838     0.63612      .   S
    C1132  O5838     0.63612      .   S
    C1151  O5839     0.94636      .   S
    C1105  O5839     0.94636      .   S
    C2061  O5840     0.63612      .   S
    C2042  O5840     0.63612      .   S
    C2061  O5841     0.94636      .   S
    C2015  O5841     0.94636      .   S
    C891   O5842     0.63606      .   S
    C872   O5842     0.63606      .   S
    C891   O5843     0.94636      .   S
    C845   O5843     0.94636      .   S
    C1411  O5844     0.63636      .   S
    C1392  O5844     0.63636      .   S
    C1411  O5845     0.94636      .   S
    C1365  O5845     0.94636      .   S
    C3493  O5846     0.70311      .   S
    C3492  O5846     0.70311      .   S
    C3503  O5847     0.70311      .   S
    C3502  O5847     0.70311      .   S
    C3483  O5848     0.70311      .   S
    C3482  O5848     0.70311      .   S
    C1574  O5849     0.63638      .   S
    C1599  O5849     0.63638      .   S
    C859   O5850     0.63638      .   S
    C884   O5850     0.63638      .   S
    C1119  O5851     0.63638      .   S
    C1144  O5851     0.63638      .   S
    C1379  O5852     0.63620      .   S
    C1404  O5852     0.63620      .   S
    C2029  O5853     0.63638      .   S
    C2054  O5853     0.63638      .   S
    C2224  O5854     0.63620      .   S
    C2249  O5854     0.63620      .   S
    C1587  O5855     0.63139      .   S
    C2972  O5855     0.63139      .   S
    C1392  O5856     0.63139      .   S
    C47    O5856     0.63139      .   S
    C2042  O5857     0.63139      .   S
    C2712  O5857     0.63139      .   S
    C872   O5858     0.63139      .   S
    C697   O5858     0.63139      .   S
    C1132  O5859     0.63139      .   S
    C502   O5859     0.63139      .   S
    C2237  O5860     0.63139      .   S
    C2452  O5860     0.63139      .   S
    C2979  O5861     0.54126      .   S
    C2937  O5861     0.54126      .   S
    C2719  O5862     0.54126      .   S
    C2677  O5862     0.54126      .   S
    C704   O5863     0.54126      .   S
    C662   O5863     0.54126      .   S
    C509   O5864     0.54126      .   S
    C467   O5864     0.54126      .   S
    C54    O5865     0.54126      .   S
    C12    O5865     0.54126      .   S
    C2459  O5866     0.54126      .   S
    C2417  O5866     0.54126      .   S
    C2068  O5867     0.54136      .   S
    C2024  O5867     0.54136      .   S
    C898   O5868     0.54143      .   S
    C854   O5868     0.54143      .   S
    C1158  O5869     0.54136      .   S
    C1114  O5869     0.54136      .   S
    C2263  O5870     0.54151      .   S
    C2219  O5870     0.54151      .   S
    C1418  O5871     0.54151      .   S
    C1374  O5871     0.54151      .   S
    C1613  O5872     0.54143      .   S
    C1569  O5872     0.54143      .   S
    C1333  O5873     0.93534      .   S
    C3140  O5873     0.93534      .   S
    C2308  O5874     0.93534      .   S
    C3140  O5874     0.93534      .   S
    C813   O5875     0.93534      .   S
    C3132  O5875     0.93534      .   S
    C1073  O5876     0.93534      .   S
    C3136  O5876     0.93534      .   S
    C1983  O5877     0.93534      .   S
    C3132  O5877     0.93534      .   S
    C1658  O5878     0.93534      .   S
    C3136  O5878     0.93534      .   S
    C3418  O5879     0.70659      .   S
    C2232  O5879     0.70659      .   S
    C3418  O5880     0.70659      .   S
    C1127  O5880     0.70659      .   S
    C3458  O5881     0.70659      .   S
    C1387  O5881     0.70659      .   S
    C3458  O5882     0.70659      .   S
    C2037  O5882     0.70659      .   S
    C3378  O5883     0.70659      .   S
    C867   O5883     0.70659      .   S
    C3378  O5884     0.70659      .   S
    C1582  O5884     0.70659      .   S
    C1165  O5885     0.54154      .   S
    C1127  O5885     0.54154      .   S
    C2075  O5886     0.54154      .   S
    C2037  O5886     0.54154      .   S
    C905   O5887     0.54154      .   S
    C867   O5887     0.54154      .   S
    C1620  O5888     0.54154      .   S
    C1582  O5888     0.54154      .   S
    C2270  O5889     0.54154      .   S
    C2232  O5889     0.54154      .   S
    C1425  O5890     0.54154      .   S
    C1387  O5890     0.54154      .   S
    C2210  O5891     0.94705      .   S
    C2246  O5891     0.94705      .   S
    C2210  O5892     0.94974      .   S
    C2247  O5892     0.94974      .   S
    C2210  O5893     0.96649      .   S
    C3189  O5893     0.96649      .   S
    C1105  O5894     0.94705      .   S
    C1141  O5894     0.94705      .   S
    C1105  O5895     0.94964      .   S
    C1142  O5895     0.94964      .   S
    C2015  O5896     0.94705      .   S
    C2051  O5896     0.94705      .   S
    C2015  O5897     0.94964      .   S
    C2052  O5897     0.94964      .   S
    C1560  O5898     0.94705      .   S
    C1596  O5898     0.94705      .   S
    C1560  O5899     0.94994      .   S
    C1597  O5899     0.94994      .   S
    C1365  O5900     0.94705      .   S
    C1401  O5900     0.94705      .   S
    C1365  O5901     0.94974      .   S
    C1402  O5901     0.94974      .   S
    C1365  O5902     0.96649      .   S
    C3145  O5902     0.96649      .   S
    C845   O5903     0.94705      .   S
    C881   O5903     0.94705      .   S
    C845   O5904     0.94994      .   S
    C882   O5904     0.94994      .   S
    C697   O5905     0.92444      .   S
    C3164  O5905     0.92444      .   S
    C502   O5906     0.92426      .   S
    C3158  O5906     0.92426      .   S
    C47    O5907     0.92446      .   S
    C3144  O5907     0.92446      .   S
    C2972  O5908     0.92444      .   S
    C3168  O5908     0.92444      .   S
    C2452  O5909     0.92446      .   S
    C3188  O5909     0.92446      .   S
    C2712  O5910     0.92426      .   S
    C3182  O5910     0.92426      .   S
    C2054  O5911     0.94416      .   S
    C3182  O5911     0.94416      .   S
    C1144  O5912     0.94416      .   S
    C3158  O5912     0.94416      .   S
    C1404  O5913     0.94435      .   S
    C3144  O5913     0.94435      .   S
    C1599  O5914     0.94437      .   S
    C3168  O5914     0.94437      .   S
    C2249  O5915     0.94435      .   S
    C3188  O5915     0.94435      .   S
    C884   O5916     0.94437      .   S
    C3164  O5916     0.94437      .   S
    C467   O5917     0.70538      .   S
    C2937  O5917     0.70538      .   S
    C467   O5918     0.70587      .   S
    C466   O5918     0.70587      .   S
    C12    O5919     0.70538      .   S
    C2417  O5919     0.70538      .   S
    C12    O5920     0.70579      .   S
    C11    O5920     0.70579      .   S
    C2937  O5921     0.70570      .   S
    C2936  O5921     0.70570      .   S
    C2677  O5922     0.70538      .   S
    C662   O5922     0.70538      .   S
    C2677  O5923     0.70587      .   S
    C2676  O5923     0.70587      .   S
    C2417  O5924     0.70579      .   S
    C2416  O5924     0.70579      .   S
    C662   O5925     0.70570      .   S
    C661   O5925     0.70570      .   S
    C2219  O5926     0.70475      .   S
    C1114  O5926     0.70475      .   S
    C2219  O5927     0.70534      .   S
    C2221  O5927     0.70534      .   S
    C2024  O5928     0.70475      .   S
    C1374  O5928     0.70475      .   S
    C2024  O5929     0.70550      .   S
    C2026  O5929     0.70550      .   S
    C1374  O5930     0.70534      .   S
    C1376  O5930     0.70534      .   S
    C1114  O5931     0.70550      .   S
    C1116  O5931     0.70550      .   S
    C1569  O5932     0.70475      .   S
    C854   O5932     0.70475      .   S
    C1569  O5933     0.70542      .   S
    C1571  O5933     0.70542      .   S
    C854   O5934     0.70542      .   S
    C856   O5934     0.70542      .   S
    C1387  O5935     0.70347      .   S
    C1386  O5935     0.70347      .   S
    C2232  O5936     0.70347      .   S
    C2231  O5936     0.70347      .   S
    C2037  O5937     0.70347      .   S
    C2036  O5937     0.70347      .   S
    C1127  O5938     0.70347      .   S
    C1126  O5938     0.70347      .   S
    C867   O5939     0.70347      .   S
    C866   O5939     0.70347      .   S
    C1582  O5940     0.70347      .   S
    C1581  O5940     0.70347      .   S
    C3482  O5941     0.63422      .   S
    C96    O5941     0.63422      .   S
    C3482  O5942     0.63422      .   S
    C2371  O5942     0.63422      .   S
    C3492  O5943     0.63422      .   S
    C2891  O5943     0.63422      .   S
    C3492  O5944     0.63422      .   S
    C421   O5944     0.63422      .   S
    C3502  O5945     0.63422      .   S
    C746   O5945     0.63422      .   S
    C3502  O5946     0.63422      .   S
    C2631  O5946     0.63422      .   S
    C1141  O5947     0.63699      .   S
    C1115  O5947     0.63699      .   S
    C1596  O5948     0.63699      .   S
    C1570  O5948     0.63699      .   S
    C2246  O5949     0.63699      .   S
    C2220  O5949     0.63699      .   S
    C2051  O5950     0.63699      .   S
    C2025  O5950     0.63699      .   S
    C881   O5951     0.63699      .   S
    C855   O5951     0.63699      .   S
    C1401  O5952     0.63699      .   S
    C1375  O5952     0.63699      .   S
    C1597  O5953     0.63746      .   S
    C2935  O5953     0.63746      .   S
    C2247  O5954     0.63754      .   S
    C2415  O5954     0.63754      .   S
    C2052  O5955     0.63761      .   S
    C2675  O5955     0.63761      .   S
    C882   O5956     0.63746      .   S
    C660   O5956     0.63746      .   S
    C1402  O5957     0.63754      .   S
    C10    O5957     0.63754      .   S
    C1142  O5958     0.63761      .   S
    C465   O5958     0.63761      .   S
    C3316  O5959     0.70434      .   S
    C2946  O5959     0.70434      .   S
    C3316  O5960     0.70461      .   S
    C476   O5960     0.70461      .   S
    C3246  O5961     0.70448      .   S
    C21    O5961     0.70448      .   S
    C3246  O5962     0.70448      .   S
    C2426  O5962     0.70448      .   S
    C3346  O5963     0.70461      .   S
    C2686  O5963     0.70461      .   S
    C3346  O5964     0.70434      .   S
    C671   O5964     0.70434      .   S
    C514   O5965     0.54130      .   S
    C476   O5965     0.54130      .   S
    C2984  O5966     0.54130      .   S
    C2946  O5966     0.54130      .   S
    C2464  O5967     0.54130      .   S
    C2426  O5967     0.54130      .   S
    C2724  O5968     0.54130      .   S
    C2686  O5968     0.54130      .   S
    C709   O5969     0.54130      .   S
    C671   O5969     0.54130      .   S
    C59    O5970     0.54130      .   S
    C21    O5970     0.54130      .   S
    C746   O5971     0.93478      .   S
    C3131  O5971     0.93478      .   S
    C96    O5972     0.93478      .   S
    C3121  O5972     0.93478      .   S
    C2371  O5973     0.93478      .   S
    C3126  O5973     0.93478      .   S
    C2891  O5974     0.93478      .   S
    C3131  O5974     0.93478      .   S
    C421   O5975     0.93478      .   S
    C3126  O5975     0.93478      .   S
    C2631  O5976     0.93478      .   S
    C3121  O5976     0.93478      .   S
    C3532  O5977     0.96244      .   S
    C3136  O5977     0.96244      .   S
    C3532  O5978     0.96217      .   S
    C3140  O5978     0.96217      .   S
    C3132  O5979     0.93478      .   S
    C1981  O5979     0.93478      .   S
    C3132  O5980     0.93478      .   S
    C811   O5980     0.93478      .   S
    C3136  O5981     0.93478      .   S
    C1071  O5981     0.93478      .   S
    C3136  O5982     0.93478      .   S
    C1656  O5982     0.93478      .   S
    C3140  O5983     0.93478      .   S
    C2306  O5983     0.93478      .   S
    C3140  O5984     0.93478      .   S
    C1331  O5984     0.93478      .   S
    C21    O5985     0.70347      .   S
    C22    O5985     0.70347      .   S
    C2686  O5986     0.70347      .   S
    C2687  O5986     0.70347      .   S
    C2426  O5987     0.70347      .   S
    C2427  O5987     0.70347      .   S
    C671   O5988     0.70347      .   S
    C672   O5988     0.70347      .   S
    C2946  O5989     0.70347      .   S
    C2947  O5989     0.70347      .   S
    C476   O5990     0.70347      .   S
    C477   O5990     0.70347      .   S
    C466   O5991     0.75535      .   S
    C465   O5991     0.75535      .   S
    C466   O5992     0.70550      .   S
    C464   O5992     0.70550      .   S
    C661   O5993     0.75566      .   S
    C660   O5993     0.75566      .   S
    C661   O5994     0.70534      .   S
    C659   O5994     0.70534      .   S
    C2936  O5995     0.75566      .   S
    C2935  O5995     0.75566      .   S
    C2936  O5996     0.70534      .   S
    C2934  O5996     0.70534      .   S
    C2676  O5997     0.75535      .   S
    C2675  O5997     0.75535      .   S
    C2676  O5998     0.70550      .   S
    C2674  O5998     0.70550      .   S
    C11    O5999     0.75548      .   S
    C10    O5999     0.75548      .   S
    C11    O6000     0.70542      .   S
    C9     O6000     0.70542      .   S
    C2416  O6001     0.75548      .   S
    C2415  O6001     0.75548      .   S
    C2416  O6002     0.70542      .   S
    C2414  O6002     0.70542      .   S
    C855   O6003     0.75548  1_655   S
    C856   O6003     0.75548      .   S
    C855   O6004     0.63754      .   S
    C687   O6004     0.63754      .   S
    C1570  O6005     0.75548  1_565   S
    C1571  O6005     0.75548      .   S
    C1570  O6006     0.63754      .   S
    C2962  O6006     0.63754      .   S
    C1375  O6007     0.75566      .   S
    C1376  O6007     0.75566      .   S
    C1375  O6008     0.63746      .   S
    C37    O6008     0.63746      .   S
    C2220  O6009     0.75566      .   S
    C2221  O6009     0.75566      .   S
    C2220  O6010     0.63746      .   S
    C2442  O6010     0.63746      .   S
    C1115  O6011     0.75535  1_565   S
    C1116  O6011     0.75535      .   S
    C1115  O6012     0.63761      .   S
    C492   O6012     0.63761      .   S
    C2025  O6013     0.75535  1_655   S
    C2026  O6013     0.75535      .   S
    C2025  O6014     0.63761      .   S
    C2702  O6014     0.63761      .   S
    C3188  O6015     0.96051      .   S
    C3189  O6015     0.96051      .   S
    C3188  O6016     0.94437      .   S
    C2444  O6016     0.94437      .   S
    C3188  O6017     0.92444      .   S
    C2257  O6017     0.92444      .   S
    C3168  O6018     0.96051      .   S
    C3169  O6018     0.96051      .   S
    C3168  O6019     0.94435      .   S
    C2964  O6019     0.94435      .   S
    C3168  O6020     0.92446      .   S
    C1607  O6020     0.92446      .   S
    C3183  O6021     0.96051      .   S
    C3182  O6021     0.96051      .   S
    C3183  O6022     0.96649      .   S
    C2665  O6022     0.96649      .   S
    C3169  O6023     0.96649      .   S
    C2925  O6023     0.96649      .   S
    C3144  O6024     0.96051      .   S
    C3145  O6024     0.96051      .   S
    C3144  O6025     0.94437      .   S
    C39    O6025     0.94437      .   S
    C3144  O6026     0.92444      .   S
    C1412  O6026     0.92444      .   S
    C3158  O6027     0.96051      .   S
    C3159  O6027     0.96051      .   S
    C3158  O6028     0.94416      .   S
    C494   O6028     0.94416      .   S
    C3158  O6029     0.92426      .   S
    C1152  O6029     0.92426      .   S
    C3159  O6030     0.96649      .   S
    C455   O6030     0.96649      .   S
    C3182  O6031     0.94416      .   S
    C2704  O6031     0.94416      .   S
    C3182  O6032     0.92426      .   S
    C2062  O6032     0.92426      .   S
    C3165  O6033     0.96051      .   S
    C3164  O6033     0.96051      .   S
    C3165  O6034     0.96649      .   S
    C650   O6034     0.96649      .   S
    C3164  O6035     0.94435      .   S
    C689   O6035     0.94435      .   S
    C3164  O6036     0.92446      .   S
    C892   O6036     0.92446      .   S
    C2935  O6037     0.63699      .   S
    C2961  O6037     0.63699      .   S
    C2415  O6038     0.63699      .   S
    C2441  O6038     0.63699      .   S
    C660   O6039     0.63699      .   S
    C686   O6039     0.63699      .   S
    C2675  O6040     0.63699      .   S
    C2701  O6040     0.63699      .   S
    C10    O6041     0.63699      .   S
    C36    O6041     0.63699      .   S
    C465   O6042     0.63699      .   S
    C491   O6042     0.63699      .   S
    C2026  O6043     0.70587      .   S
    C2027  O6043     0.70587      .   S
    C2221  O6044     0.70570      .   S
    C2222  O6044     0.70570      .   S
    C1376  O6045     0.70570      .   S
    C1377  O6045     0.70570      .   S
    C1571  O6046     0.70579      .   S
    C1572  O6046     0.70579      .   S
    C856   O6047     0.70579      .   S
    C857   O6047     0.70579      .   S
    C1116  O6048     0.70587      .   S
    C1117  O6048     0.70587      .   S
    C1126  O6049     0.54130      .   S
    C1164  O6049     0.54130      .   S
    C1126  O6050     0.70461      .   S
    C3416  O6050     0.70461      .   S
    C1386  O6051     0.54130      .   S
    C1424  O6051     0.54130      .   S
    C1386  O6052     0.70434      .   S
    C3456  O6052     0.70434      .   S
    C866   O6053     0.54130      .   S
    C904   O6053     0.54130      .   S
    C866   O6054     0.70448      .   S
    C3376  O6054     0.70448      .   S
    C1581  O6055     0.54130      .   S
    C1619  O6055     0.54130      .   S
    C1581  O6056     0.70448      .   S
    C3376  O6056     0.70448      .   S
    C2231  O6057     0.54130      .   S
    C2269  O6057     0.54130      .   S
    C2231  O6058     0.70434      .   S
    C3416  O6058     0.70434      .   S
    C2036  O6059     0.54130      .   S
    C2074  O6059     0.54130      .   S
    C2036  O6060     0.70461      .   S
    C3456  O6060     0.70461      .   S
    C3131  O6061     0.96217      .   S
    C3529  O6061     0.96217      .   S
    C3131  O6062     0.93534      .   S
    C748   O6062     0.93534      .   S
    C3131  O6063     0.93534      .   S
    C2893  O6063     0.93534      .   S
    C3126  O6064     0.93534      .   S
    C2373  O6064     0.93534      .   S
    C3126  O6065     0.93534      .   S
    C423   O6065     0.93534      .   S
    C3121  O6066     0.96244      .   S
    C3529  O6066     0.96244      .   S
    C3121  O6067     0.93534      .   S
    C98    O6067     0.93534      .   S
    C3121  O6068     0.93534      .   S
    C2633  O6068     0.93534      .   S
    C1071  O6069     0.63422      .   S
    C3512  O6069     0.63422      .   S
    C2306  O6070     0.63422      .   S
    C3512  O6070     0.63422      .   S
    C1981  O6071     0.63422      .   S
    C3520  O6071     0.63422      .   S
    C1331  O6072     0.63422      .   S
    C3520  O6072     0.63422      .   S
    C1656  O6073     0.63422      .   S
    C3504  O6073     0.63422      .   S
    C811   O6074     0.63422      .   S
    C3504  O6074     0.63422      .   S
    C3376  O6075     0.75176      .   S
    C3375  O6075     0.75176      .   S
    C3456  O6076     0.75176      .   S
    C3455  O6076     0.75176      .   S
    C3416  O6077     0.75176      .   S
    C3415  O6077     0.75176      .   S
    C492   O6078     0.94964      .   S
    C455   O6078     0.94964      .   S
    C687   O6079     0.94974      .   S
    C650   O6079     0.94974      .   S
    C2962  O6080     0.94974      .   S
    C2925  O6080     0.94974      .   S
    C37    O6081     0.94994      .   S
    C0     O6081     0.94994      .   S
    C2702  O6082     0.94964      .   S
    C2665  O6082     0.94964      .   S
    C2442  O6083     0.94994      .   S
    C2405  O6083     0.94994      .   S
    C2961  O6084     0.94705      .   S
    C2925  O6084     0.94705      .   S
    C36    O6085     0.94705      .   S
    C0     O6085     0.94705      .   S
    C2441  O6086     0.94705      .   S
    C2405  O6086     0.94705      .   S
    C686   O6087     0.94705      .   S
    C650   O6087     0.94705      .   S
    C491   O6088     0.94705      .   S
    C455   O6088     0.94705      .   S
    C2701  O6089     0.94705      .   S
    C2665  O6089     0.94705      .   S
    C3504  O6090     0.70311      .   S
    C3505  O6090     0.70311      .   S
    C3512  O6091     0.70311      .   S
    C3513  O6091     0.70311      .   S
    C3520  O6092     0.70311      .   S
    C3521  O6092     0.70311      .   S
    C477   O6093     0.54154      .   S
    C515   O6093     0.54154      .   S
    C477   O6094     0.70659      .   S
    C3318  O6094     0.70659      .   S
    C2687  O6095     0.54154      .   S
    C2725  O6095     0.54154      .   S
    C2687  O6096     0.70659      .   S
    C3348  O6096     0.70659      .   S
    C2947  O6097     0.54154      .   S
    C2985  O6097     0.54154      .   S
    C2947  O6098     0.70659      .   S
    C3318  O6098     0.70659      .   S
    C22    O6099     0.54154      .   S
    C60    O6099     0.54154      .   S
    C22    O6100     0.70659      .   S
    C3248  O6100     0.70659      .   S
    C2427  O6101     0.54154      .   S
    C2465  O6101     0.54154      .   S
    C2427  O6102     0.70659      .   S
    C3248  O6102     0.70659      .   S
    C672   O6103     0.54154      .   S
    C710   O6103     0.54154      .   S
    C672   O6104     0.70659      .   S
    C3348  O6104     0.70659      .   S
    C2674  O6105     0.70475      .   S
    C659   O6105     0.70475      .   S
    C2674  O6106     0.54136      .   S
    C2718  O6106     0.54136      .   S
    C464   O6107     0.70475      .   S
    C2934  O6107     0.70475      .   S
    C464   O6108     0.54136      .   S
    C508   O6108     0.54136      .   S
    C2414  O6109     0.70475      .   S
    C9     O6109     0.70475      .   S
    C2414  O6110     0.54143      .   S
    C2458  O6110     0.54143      .   S
    C9     O6111     0.54143      .   S
    C53    O6111     0.54143      .   S
    C2934  O6112     0.54151      .   S
    C2978  O6112     0.54151      .   S
    C659   O6113     0.54151      .   S
    C703   O6113     0.54151      .   S
    C857   O6114     0.70538      .   S
    C1572  O6114     0.70538      .   S
    C857   O6115     0.54126      .   S
    C899   O6115     0.54126      .   S
    C1572  O6116     0.54126      .   S
    C1614  O6116     0.54126      .   S
    C1117  O6117     0.70538      .   S
    C2222  O6117     0.70538      .   S
    C1117  O6118     0.54126      .   S
    C1159  O6118     0.54126      .   S
    C1377  O6119     0.70538      .   S
    C2027  O6119     0.70538      .   S
    C1377  O6120     0.54126      .   S
    C1419  O6120     0.54126      .   S
    C2222  O6121     0.54126      .   S
    C2264  O6121     0.54126      .   S
    C2027  O6122     0.54126      .   S
    C2069  O6122     0.54126      .   S
    C689   O6123     0.63620      .   S
    C664   O6123     0.63620      .   S
    C39    O6124     0.63638      .   S
    C14    O6124     0.63638      .   S
    C2444  O6125     0.63638      .   S
    C2419  O6125     0.63638      .   S
    C2704  O6126     0.63638      .   S
    C2679  O6126     0.63638      .   S
    C2964  O6127     0.63620      .   S
    C2939  O6127     0.63620      .   S
    C494   O6128     0.63638      .   S
    C469   O6128     0.63638      .   S
    C1152  O6129     0.63139      .   S
    C482   O6129     0.63139      .   S
    C2257  O6130     0.63139      .   S
    C2432  O6130     0.63139      .   S
    C2062  O6131     0.63139      .   S
    C2692  O6131     0.63139      .   S
    C1412  O6132     0.63139      .   S
    C27    O6132     0.63139      .   S
    C892   O6133     0.63139      .   S
    C677   O6133     0.63139      .   S
    C1607  O6134     0.63139      .   S
    C2952  O6134     0.63139      .   S
    C2665  O6135     0.94636      .   S
    C2711  O6135     0.94636      .   S
    C2665  O6136     0.95084      .   S
    C2703  O6136     0.95084      .   S
    C2405  O6137     0.94636      .   S
    C2451  O6137     0.94636      .   S
    C2405  O6138     0.95084      .   S
    C2443  O6138     0.95084      .   S
    C0     O6139     0.94636      .   S
    C46    O6139     0.94636      .   S
    C0     O6140     0.95084      .   S
    C38    O6140     0.95084      .   S
    C650   O6141     0.94636      .   S
    C696   O6141     0.94636      .   S
    C650   O6142     0.95084      .   S
    C688   O6142     0.95084      .   S
    C455   O6143     0.94636      .   S
    C501   O6143     0.94636      .   S
    C455   O6144     0.95084      .   S
    C493   O6144     0.95084      .   S
    C2925  O6145     0.94636      .   S
    C2971  O6145     0.94636      .   S
    C2925  O6146     0.95084      .   S
    C2963  O6146     0.95084      .   S
    C3248  O6147     0.71274      .   S
    C3247  O6147     0.71274      .   S
    C3318  O6148     0.71274      .   S
    C3317  O6148     0.71274      .   S
    C3348  O6149     0.71274      .   S
    C3347  O6149     0.71274      .   S
    C2373  O6150     0.63402      .   S
    C3253  O6150     0.63402      .   S
    C98    O6151     0.63402      .   S
    C3253  O6151     0.63402      .   S
    C2633  O6152     0.63424      .   S
    C3353  O6152     0.63424      .   S
    C748   O6153     0.63396      .   S
    C3353  O6153     0.63396      .   S
    C423   O6154     0.63424      .   S
    C3303  O6154     0.63424      .   S
    C2893  O6155     0.63396      .   S
    C3303  O6155     0.63396      .   S
    C707   O6156     0.54112      .   S
    C669   O6156     0.54112      .   S
    C2462  O6157     0.54131      .   S
    C2424  O6157     0.54131      .   S
    C57    O6158     0.54131      .   S
    C19    O6158     0.54131      .   S
    C2722  O6159     0.54132      .   S
    C2684  O6159     0.54132      .   S
    C2982  O6160     0.54112      .   S
    C2944  O6160     0.54112      .   S
    C512   O6161     0.54132      .   S
    C474   O6161     0.54132      .   S
    C2432  O6162     0.63606      .   S
    C2451  O6162     0.63606      .   S
    C2432  O6163     0.74077      .   S
    C1133  O6163     0.74077      .   S
    C27    O6164     0.63606      .   S
    C46    O6164     0.63606      .   S
    C27    O6165     0.74077      .   S
    C2043  O6165     0.74077      .   S
    C677   O6166     0.63636      .   S
    C696   O6166     0.63636      .   S
    C677   O6167     0.74064      .   S
    C1588  O6167     0.74064      .   S
    C2952  O6168     0.63636      .   S
    C2971  O6168     0.63636      .   S
    C2952  O6169     0.74064      .   S
    C873   O6169     0.74064      .   S
    C2692  O6170     0.63612      .   S
    C2711  O6170     0.63612      .   S
    C2692  O6171     0.74091      .   S
    C1393  O6171     0.74091      .   S
    C482   O6172     0.63612      .   S
    C501   O6172     0.63612      .   S
    C482   O6173     0.74091      .   S
    C2238  O6173     0.74091      .   S
    C664   O6174     0.63747      .   S
    C688   O6174     0.63747      .   S
    C664   O6175     0.75436      .   S
    C665   O6175     0.75436      .   S
    C2419  O6176     0.63747      .   S
    C2443  O6176     0.63747      .   S
    C2419  O6177     0.75436      .   S
    C2420  O6177     0.75436      .   S
    C469   O6178     0.63747      .   S
    C493   O6178     0.63747      .   S
    C469   O6179     0.75436      .   S
    C470   O6179     0.75436      .   S
    C14    O6180     0.63747      .   S
    C38    O6180     0.63747      .   S
    C14    O6181     0.75436      .   S
    C15    O6181     0.75436      .   S
    C2679  O6182     0.63747      .   S
    C2703  O6182     0.63747      .   S
    C2679  O6183     0.75436      .   S
    C2680  O6183     0.75436      .   S
    C2939  O6184     0.63747      .   S
    C2963  O6184     0.63747      .   S
    C2939  O6185     0.75436      .   S
    C2940  O6185     0.75436      .   S
    C1429  O6186     0.54169      .   S
    C1395  O6186     0.54169      .   S
    C1624  O6187     0.54163      .   S
    C1590  O6187     0.54163      .   S
    C2274  O6188     0.54169      .   S
    C2240  O6188     0.54169      .   S
    C909   O6189     0.54163      .   S
    C875   O6189     0.54163      .   S
    C1169  O6190     0.54145      .   S
    C1135  O6190     0.54145      .   S
    C2079  O6191     0.54145      .   S
    C2045  O6191     0.54145      .   S
    C3521  O6192     0.70418      .   S
    C1302  O6192     0.70418      .   S
    C3521  O6193     0.70445      .   S
    C1952  O6193     0.70445      .   S
    C3513  O6194     0.70418      .   S
    C2277  O6194     0.70418      .   S
    C3513  O6195     0.70445      .   S
    C1042  O6195     0.70445      .   S
    C3505  O6196     0.70440      .   S
    C782   O6196     0.70440      .   S
    C3505  O6197     0.70440      .   S
    C1627  O6197     0.70440      .   S
    C3375  O6198     0.63589      .   S
    C887   O6198     0.63589      .   S
    C3375  O6199     0.63589      .   S
    C1602  O6199     0.63589      .   S
    C3415  O6200     0.63562      .   S
    C2252  O6200     0.63562      .   S
    C3415  O6201     0.63617      .   S
    C1147  O6201     0.63617      .   S
    C3455  O6202     0.63562      .   S
    C1407  O6202     0.63562      .   S
    C3455  O6203     0.63617      .   S
    C2057  O6203     0.63617      .   S
    C2323  O6204     0.54175      .   S
    C2277  O6204     0.54175      .   S
    C1673  O6205     0.54169      .   S
    C1627  O6205     0.54169      .   S
    C1088  O6206     0.54147      .   S
    C1042  O6206     0.54147      .   S
    C1998  O6207     0.54147      .   S
    C1952  O6207     0.54147      .   S
    C1348  O6208     0.54175      .   S
    C1302  O6208     0.54175      .   S
    C828   O6209     0.54169      .   S
    C782   O6209     0.54169      .   S
    C3253  O6210     0.74063      .   S
    C3254  O6210     0.74063      .   S
    C3303  O6211     0.74027      .   S
    C3304  O6211     0.74027      .   S
    C3353  O6212     0.74027      .   S
    C3354  O6212     0.74027      .   S
    C2277  O6213     0.69784      .   S
    C1107  O6213     0.69784      .   S
    C782   O6214     0.69784      .   S
    C1562  O6214     0.69784      .   S
    C1302  O6215     0.69784      .   S
    C2017  O6215     0.69784      .   S
    C1952  O6216     0.69784      .   S
    C1367  O6216     0.69784      .   S
    C1042  O6217     0.69784      .   S
    C2212  O6217     0.69784      .   S
    C1627  O6218     0.69784      .   S
    C847   O6218     0.69784      .   S
    C1395  O6219     0.70430      .   S
    C1393  O6219     0.70430      .   S
    C1395  O6220     0.69514      .   S
    C1394  O6220     0.69514      .   S
    C2045  O6221     0.70439      .   S
    C2043  O6221     0.70439      .   S
    C2045  O6222     0.69514      .   S
    C2044  O6222     0.69514      .   S
    C875   O6223     0.70409      .   S
    C873   O6223     0.70409      .   S
    C875   O6224     0.69514      .   S
    C874   O6224     0.69514      .   S
    C1590  O6225     0.70409      .   S
    C1588  O6225     0.70409      .   S
    C1590  O6226     0.69514      .   S
    C1589  O6226     0.69514      .   S
    C1135  O6227     0.70439      .   S
    C1133  O6227     0.70439      .   S
    C1135  O6228     0.69514      .   S
    C1134  O6228     0.69514      .   S
    C2240  O6229     0.70430      .   S
    C2238  O6229     0.70430      .   S
    C2240  O6230     0.69514      .   S
    C2239  O6230     0.69514      .   S
    C19    O6231     0.70517      .   S
    C15    O6231     0.70517      .   S
    C19    O6232     0.70324      .   S
    C20    O6232     0.70324      .   S
    C669   O6233     0.70517      .   S
    C665   O6233     0.70517      .   S
    C669   O6234     0.70324      .   S
    C670   O6234     0.70324      .   S
    C2424  O6235     0.70517      .   S
    C2420  O6235     0.70517      .   S
    C2424  O6236     0.70324      .   S
    C2425  O6236     0.70324      .   S
    C474   O6237     0.70517      .   S
    C470   O6237     0.70517      .   S
    C474   O6238     0.70324      .   S
    C475   O6238     0.70324      .   S
    C2944  O6239     0.70517      .   S
    C2940  O6239     0.70517      .   S
    C2944  O6240     0.70324      .   S
    C2945  O6240     0.70324      .   S
    C2684  O6241     0.70517      .   S
    C2680  O6241     0.70517      .   S
    C2684  O6242     0.70324      .   S
    C2685  O6242     0.70324      .   S
    C1393  O6243     0.70213      .   S
    C1391  O6243     0.70213      .   S
    C873   O6244     0.70213      .   S
    C871   O6244     0.70213      .   S
    C2238  O6245     0.70213      .   S
    C2236  O6245     0.70213      .   S
    C1588  O6246     0.70213      .   S
    C1586  O6246     0.70213      .   S
    C1133  O6247     0.70213      .   S
    C1131  O6247     0.70213      .   S
    C2043  O6248     0.70213      .   S
    C2041  O6248     0.70213      .   S
    C2252  O6249     0.94495      .   S
    C2211  O6249     0.94495      .   S
    C1147  O6250     0.94495      .   S
    C1106  O6250     0.94495      .   S
    C887   O6251     0.94495      .   S
    C846   O6251     0.94495      .   S
    C1407  O6252     0.94495      .   S
    C1366  O6252     0.94495      .   S
    C1602  O6253     0.94495      .   S
    C1561  O6253     0.94495      .   S
    C2057  O6254     0.94495      .   S
    C2016  O6254     0.94495      .   S
    C2940  O6255     0.70575      .   S
    C2938  O6255     0.70575      .   S
    C15    O6256     0.70558      .   S
    C13    O6256     0.70558      .   S
    C665   O6257     0.70575      .   S
    C663   O6257     0.70575      .   S
    C2420  O6258     0.70558      .   S
    C2418  O6258     0.70558      .   S
    C470   O6259     0.70555      .   S
    C468   O6259     0.70555      .   S
    C2680  O6260     0.70555      .   S
    C2678  O6260     0.70555      .   S
    C3317  O6261     0.63651      .   S
    C498   O6261     0.63651      .   S
    C3317  O6262     0.63651      .   S
    C2968  O6262     0.63651      .   S
    C3247  O6263     0.63651      .   S
    C2448  O6263     0.63651      .   S
    C3247  O6264     0.63651      .   S
    C43    O6264     0.63651      .   S
    C3347  O6265     0.63651      .   S
    C693   O6265     0.63651      .   S
    C3347  O6266     0.63651      .   S
    C2708  O6266     0.63651      .   S
    C908   O6267     0.54177      .   S
    C874   O6267     0.54177      .   S
    C1428  O6268     0.54156      .   S
    C1394  O6268     0.54156      .   S
    C2078  O6269     0.54146      .   S
    C2044  O6269     0.54146      .   S
    C1623  O6270     0.54177      .   S
    C1589  O6270     0.54177      .   S
    C1168  O6271     0.54146      .   S
    C1134  O6271     0.54146      .   S
    C2273  O6272     0.54156      .   S
    C2239  O6272     0.54156      .   S
    C2463  O6273     0.54145      .   S
    C2425  O6273     0.54145      .   S
    C2983  O6274     0.54115      .   S
    C2945  O6274     0.54115      .   S
    C513   O6275     0.54121      .   S
    C475   O6275     0.54121      .   S
    C58    O6276     0.54145      .   S
    C20    O6276     0.54145      .   S
    C2723  O6277     0.54121      .   S
    C2685  O6277     0.54121      .   S
    C708   O6278     0.54115      .   S
    C670   O6278     0.54115      .   S
    C1134  O6279     0.70056      .   S
    C1130  O6279     0.70056      .   S
    C2239  O6280     0.70031      .   S
    C2235  O6280     0.70031      .   S
    C1589  O6281     0.70038      .   S
    C1585  O6281     0.70038      .   S
    C2044  O6282     0.70056      .   S
    C2040  O6282     0.70056      .   S
    C874   O6283     0.70038      .   S
    C870   O6283     0.70038      .   S
    C1394  O6284     0.70031      .   S
    C1390  O6284     0.70031      .   S
    C3354  O6285     0.70306      .   S
    C719   O6285     0.70306      .   S
    C3354  O6286     0.70279      .   S
    C2604  O6286     0.70279      .   S
    C3254  O6287     0.70283      .   S
    C2344  O6287     0.70283      .   S
    C3254  O6288     0.70283      .   S
    C69    O6288     0.70283      .   S
    C3304  O6289     0.70279      .   S
    C394   O6289     0.70279      .   S
    C3304  O6290     0.70306      .   S
    C2864  O6290     0.70306      .   S
    C765   O6291     0.54169      .   S
    C719   O6291     0.54169      .   S
    C2390  O6292     0.54169      .   S
    C2344  O6292     0.54169      .   S
    C440   O6293     0.54169      .   S
    C394   O6293     0.54169      .   S
    C2910  O6294     0.54169      .   S
    C2864  O6294     0.54169      .   S
    C2650  O6295     0.54169      .   S
    C2604  O6295     0.54169      .   S
    C115   O6296     0.54169      .   S
    C69    O6296     0.54169      .   S
    C670   O6297     0.70505      .   S
    C668   O6297     0.70505      .   S
    C2945  O6298     0.70505      .   S
    C2943  O6298     0.70505      .   S
    C2425  O6299     0.70505      .   S
    C2423  O6299     0.70505      .   S
    C2685  O6300     0.70505      .   S
    C2683  O6300     0.70505      .   S
    C475   O6301     0.70505      .   S
    C473   O6301     0.70505      .   S
    C20    O6302     0.70505      .   S
    C18    O6302     0.70505      .   S
    C1391  O6303     0.54157      .   S
    C1427  O6303     0.54157      .   S
    C1391  O6304     0.70119      .   S
    C1388  O6304     0.70119      .   S
    C1131  O6305     0.54167      .   S
    C1167  O6305     0.54167      .   S
    C1131  O6306     0.70119      .   S
    C1128  O6306     0.70119      .   S
    C1586  O6307     0.54137      .   S
    C1622  O6307     0.54137      .   S
    C1586  O6308     0.70119      .   S
    C1583  O6308     0.70119      .   S
    C2041  O6309     0.54167      .   S
    C2077  O6309     0.54167      .   S
    C2041  O6310     0.70119      .   S
    C2038  O6310     0.70119      .   S
    C871   O6311     0.54137      .   S
    C907   O6311     0.54137      .   S
    C871   O6312     0.70119      .   S
    C868   O6312     0.70119      .   S
    C2236  O6313     0.54157      .   S
    C2272  O6313     0.54157      .   S
    C2236  O6314     0.70119      .   S
    C2233  O6314     0.70119      .   S
    C498   O6315     0.94522      .   S
    C3223  O6315     0.94522      .   S
    C693   O6316     0.94522      .   S
    C3226  O6316     0.94522      .   S
    C2968  O6317     0.94522      .   S
    C3222  O6317     0.94522      .   S
    C2448  O6318     0.94522      .   S
    C3217  O6318     0.94522      .   S
    C43    O6319     0.94522      .   S
    C3216  O6319     0.94522      .   S
    C2708  O6320     0.94522      .   S
    C3227  O6320     0.94522      .   S
    C1367  O6321     0.54147      .   S
    C1413  O6321     0.54147      .   S
    C1367  O6322     0.70445      .   S
    C3523  O6322     0.70445      .   S
    C1107  O6323     0.54175      .   S
    C1153  O6323     0.54175      .   S
    C1107  O6324     0.70418      .   S
    C3515  O6324     0.70418      .   S
    C2212  O6325     0.54147      .   S
    C2258  O6325     0.54147      .   S
    C2212  O6326     0.70445      .   S
    C3515  O6326     0.70445      .   S
    C847   O6327     0.54154      .   S
    C893   O6327     0.54154      .   S
    C847   O6328     0.70424      .   S
    C3507  O6328     0.70424      .   S
    C2017  O6329     0.54175      .   S
    C2063  O6329     0.54175      .   S
    C2017  O6330     0.70418      .   S
    C3523  O6330     0.70418      .   S
    C1562  O6331     0.54154      .   S
    C1608  O6331     0.54154      .   S
    C1562  O6332     0.70424      .   S
    C3507  O6332     0.70424      .   S
    C663   O6333     0.54117      .   S
    C705   O6333     0.54117      .   S
    C663   O6334     0.70600      .   S
    C666   O6334     0.70600      .   S
    C2938  O6335     0.54117      .   S
    C2980  O6335     0.54117      .   S
    C2938  O6336     0.70600      .   S
    C2941  O6336     0.70600      .   S
    C2678  O6337     0.54117      .   S
    C2720  O6337     0.54117      .   S
    C2678  O6338     0.70600      .   S
    C2681  O6338     0.70600      .   S
    C13    O6339     0.54117      .   S
    C55    O6339     0.54117      .   S
    C13    O6340     0.70600      .   S
    C16    O6340     0.70600      .   S
    C2418  O6341     0.54117      .   S
    C2460  O6341     0.54117      .   S
    C2418  O6342     0.70600      .   S
    C2421  O6342     0.70600      .   S
    C468   O6343     0.54117      .   S
    C510   O6343     0.54117      .   S
    C468   O6344     0.70600      .   S
    C471   O6344     0.70600      .   S
    C394   O6345     0.69792      .   S
    C393   O6345     0.69792      .   S
    C719   O6346     0.69792      .   S
    C718   O6346     0.69792      .   S
    C2344  O6347     0.69792      .   S
    C2343  O6347     0.69792      .   S
    C2864  O6348     0.69792      .   S
    C2863  O6348     0.69792      .   S
    C2604  O6349     0.69792      .   S
    C2603  O6349     0.69792      .   S
    C69    O6350     0.69792      .   S
    C68    O6350     0.69792      .   S
    C870   O6351     0.70508      .   S
    C868   O6351     0.70508      .   S
    C870   O6352     0.73985  1_455   S
    C869   O6352     0.73985      .   S
    C1390  O6353     0.70508      .   S
    C1388  O6353     0.70508      .   S
    C1390  O6354     0.73985      .   S
    C1389  O6354     0.73985      .   S
    C1130  O6355     0.70508      .   S
    C1128  O6355     0.70508      .   S
    C1130  O6356     0.73985  1_545   S
    C1129  O6356     0.73985      .   S
    C2040  O6357     0.70508      .   S
    C2038  O6357     0.70508      .   S
    C2040  O6358     0.73985  1_455   S
    C2039  O6358     0.73985      .   S
    C2235  O6359     0.70508      .   S
    C2233  O6359     0.70508      .   S
    C2235  O6360     0.73985      .   S
    C2234  O6360     0.73985      .   S
    C1585  O6361     0.70508      .   S
    C1583  O6361     0.70508      .   S
    C1585  O6362     0.73985  1_545   S
    C1584  O6362     0.73985      .   S
    C1150  O6363     0.93592      .   S
    C1106  O6363     0.93592      .   S
    C1150  O6364     0.63519      .   S
    C2234  O6364     0.63519      .   S
    C1605  O6365     0.93653      .   S
    C1561  O6365     0.93653      .   S
    C1605  O6366     0.63497      .   S
    C869   O6366     0.63497      .   S
    C2060  O6367     0.93592      .   S
    C2016  O6367     0.93592      .   S
    C2060  O6368     0.63519      .   S
    C1389  O6368     0.63519      .   S
    C890   O6369     0.93653      .   S
    C846   O6369     0.93653      .   S
    C890   O6370     0.63497      .   S
    C1584  O6370     0.63497      .   S
    C1410  O6371     0.93616      .   S
    C1366  O6371     0.93616      .   S
    C1410  O6372     0.63525      .   S
    C2039  O6372     0.63525      .   S
    C2255  O6373     0.93616      .   S
    C2211  O6373     0.93616      .   S
    C2255  O6374     0.63525      .   S
    C1129  O6374     0.63525      .   S
    C1583  O6375     0.54159      .   S
    C1621  O6375     0.54159  1_565   S
    C2233  O6376     0.54165      .   S
    C2271  O6376     0.54165      .   S
    C2038  O6377     0.54140      .   S
    C2076  O6377     0.54140  1_655   S
    C1388  O6378     0.54165      .   S
    C1426  O6378     0.54165      .   S
    C868   O6379     0.54159      .   S
    C906   O6379     0.54159  1_655   S
    C1128  O6380     0.54140      .   S
    C1166  O6380     0.54140  1_565   S
    C3515  O6381     0.70311      .   S
    C3514  O6381     0.70311      .   S
    C3507  O6382     0.70311      .   S
    C3506  O6382     0.70311      .   S
    C3523  O6383     0.70311      .   S
    C3522  O6383     0.70311      .   S
    C2683  O6384     0.70575      .   S
    C2681  O6384     0.70575      .   S
    C2683  O6385     0.75417      .   S
    C2682  O6385     0.75417      .   S
    C2943  O6386     0.70580      .   S
    C2941  O6386     0.70580      .   S
    C2943  O6387     0.75417      .   S
    C2942  O6387     0.75417      .   S
    C2423  O6388     0.70551      .   S
    C2421  O6388     0.70551      .   S
    C2423  O6389     0.75417      .   S
    C2422  O6389     0.75417      .   S
    C18    O6390     0.70551      .   S
    C16    O6390     0.70551      .   S
    C18    O6391     0.75417      .   S
    C17    O6391     0.75417      .   S
    C473   O6392     0.70575      .   S
    C471   O6392     0.70575      .   S
    C473   O6393     0.75417      .   S
    C472   O6393     0.75417      .   S
    C668   O6394     0.70580      .   S
    C666   O6394     0.70580      .   S
    C668   O6395     0.75417      .   S
    C667   O6395     0.75417      .   S
    C2211  O6396     0.93594      .   S
    C2242  O6396     0.93594      .   S
    C2211  O6397     0.96249      .   S
    C3419  O6397     0.96249      .   S
    C2211  O6398     0.94364      .   S
    C2244  O6398     0.94364      .   S
    C2016  O6399     0.93603      .   S
    C2047  O6399     0.93603      .   S
    C2016  O6400     0.96303      .   S
    C3459  O6400     0.96303      .   S
    C2016  O6401     0.94352      .   S
    C2049  O6401     0.94352      .   S
    C1366  O6402     0.93594      .   S
    C1397  O6402     0.93594      .   S
    C1366  O6403     0.96249      .   S
    C3459  O6403     0.96249      .   S
    C1366  O6404     0.94364      .   S
    C1399  O6404     0.94364      .   S
    C1106  O6405     0.93603      .   S
    C1137  O6405     0.93603      .   S
    C1106  O6406     0.96303      .   S
    C3419  O6406     0.96303      .   S
    C1106  O6407     0.94352      .   S
    C1139  O6407     0.94352      .   S
    C1561  O6408     0.93573      .   S
    C1592  O6408     0.93573      .   S
    C1561  O6409     0.96297      .   S
    C3379  O6409     0.96297      .   S
    C1561  O6410     0.94357      .   S
    C1594  O6410     0.94357      .   S
    C846   O6411     0.93573      .   S
    C877   O6411     0.93573      .   S
    C846   O6412     0.96297      .   S
    C3379  O6412     0.96297      .   S
    C846   O6413     0.94357      .   S
    C879   O6413     0.94357      .   S
    C2941  O6414     0.54109      .   S
    C2981  O6414     0.54109      .   S
    C16    O6415     0.54146      .   S
    C56    O6415     0.54146      .   S
    C666   O6416     0.54109      .   S
    C706   O6416     0.54109      .   S
    C2421  O6417     0.54146      .   S
    C2461  O6417     0.54146      .   S
    C2681  O6418     0.54149      .   S
    C2721  O6418     0.54149      .   S
    C471   O6419     0.54149      .   S
    C511   O6419     0.54149      .   S
    C869   O6420     0.63319      .   S
    C889   O6420     0.63319      .   S
    C1389  O6421     0.63314      .   S
    C1409  O6421     0.63314      .   S
    C1129  O6422     0.63336      .   S
    C1149  O6422     0.63336      .   S
    C1584  O6423     0.63319      .   S
    C1604  O6423     0.63319      .   S
    C2234  O6424     0.63314      .   S
    C2254  O6424     0.63314      .   S
    C2039  O6425     0.63336      .   S
    C2059  O6425     0.63336      .   S
    C1592  O6426     0.63450      .   S
    C3371  O6426     0.63450      .   S
    C877   O6427     0.63450      .   S
    C3371  O6427     0.63450      .   S
    C2242  O6428     0.63450      .   S
    C3411  O6428     0.63450      .   S
    C2047  O6429     0.63450      .   S
    C3451  O6429     0.63450      .   S
    C1137  O6430     0.63450      .   S
    C3411  O6430     0.63450      .   S
    C1397  O6431     0.63450      .   S
    C3451  O6431     0.63450      .   S
    C68    O6432     0.54153      .   S
    C114   O6432     0.54153      .   S
    C68    O6433     0.70302      .   S
    C3252  O6433     0.70302      .   S
    C2603  O6434     0.54147      .   S
    C2649  O6434     0.54147      .   S
    C2603  O6435     0.70302      .   S
    C3352  O6435     0.70302      .   S
    C393   O6436     0.54147      .   S
    C439   O6436     0.54147      .   S
    C393   O6437     0.70302      .   S
    C3302  O6437     0.70302      .   S
    C718   O6438     0.54175      .   S
    C764   O6438     0.54175      .   S
    C718   O6439     0.70302      .   S
    C3352  O6439     0.70302      .   S
    C2343  O6440     0.54153      .   S
    C2389  O6440     0.54153      .   S
    C2343  O6441     0.70302      .   S
    C3252  O6441     0.70302      .   S
    C2863  O6442     0.54175      .   S
    C2909  O6442     0.54175      .   S
    C2863  O6443     0.70302      .   S
    C3302  O6443     0.70302      .   S
    C3451  O6444     0.74058      .   S
    C3452  O6444     0.74058      .   S
    C3411  O6445     0.74058      .   S
    C3412  O6445     0.74058      .   S
    C3371  O6446     0.74058      .   S
    C3372  O6446     0.74058      .   S
    C2446  O6447     0.63614      .   S
    C2422  O6447     0.63614      .   S
    C2446  O6448     0.94483      .   S
    C3217  O6448     0.94483      .   S
    C496   O6449     0.63637      .   S
    C472   O6449     0.63637      .   S
    C496   O6450     0.94453      .   S
    C3223  O6450     0.94453      .   S
    C41    O6451     0.63614      .   S
    C17    O6451     0.63614      .   S
    C41    O6452     0.94483      .   S
    C3216  O6452     0.94483      .   S
    C2706  O6453     0.63637      .   S
    C2682  O6453     0.63637      .   S
    C2706  O6454     0.94453      .   S
    C3227  O6454     0.94453      .   S
    C2966  O6455     0.63643      .   S
    C2942  O6455     0.63643      .   S
    C2966  O6456     0.94466      .   S
    C3222  O6456     0.94466      .   S
    C691   O6457     0.63643      .   S
    C667   O6457     0.63643      .   S
    C691   O6458     0.94466      .   S
    C3226  O6458     0.94466      .   S
    C2942  O6459     0.63735      .   S
    C2965  O6459     0.63735      .   S
    C472   O6460     0.63735      .   S
    C495   O6460     0.63735      .   S
    C17    O6461     0.63735      .   S
    C40    O6461     0.63735      .   S
    C2682  O6462     0.63735      .   S
    C2705  O6462     0.63735      .   S
    C667   O6463     0.63735      .   S
    C690   O6463     0.63735      .   S
    C2422  O6464     0.63735      .   S
    C2445  O6464     0.63735      .   S
    C3452  O6465     0.70302      .   S
    C2018  O6465     0.70302      .   S
    C3452  O6466     0.70302      .   S
    C1368  O6466     0.70302      .   S
    C3412  O6467     0.70302      .   S
    C2213  O6467     0.70302      .   S
    C3412  O6468     0.70302      .   S
    C1108  O6468     0.70302      .   S
    C3372  O6469     0.70302      .   S
    C1563  O6469     0.70302      .   S
    C3372  O6470     0.70302      .   S
    C848   O6470     0.70302      .   S
    C1154  O6471     0.54175      .   S
    C1108  O6471     0.54175      .   S
    C1414  O6472     0.54147      .   S
    C1368  O6472     0.54147      .   S
    C2064  O6473     0.54175      .   S
    C2018  O6473     0.54175      .   S
    C1609  O6474     0.54148      .   S
    C1563  O6474     0.54148      .   S
    C2259  O6475     0.54147      .   S
    C2213  O6475     0.54147      .   S
    C894   O6476     0.54148      .   S
    C848   O6476     0.54148      .   S
    C2018  O6477     0.69792      .   S
    C2019  O6477     0.69792      .   S
    C1563  O6478     0.69792      .   S
    C1564  O6478     0.69792      .   S
    C1368  O6479     0.69792      .   S
    C1369  O6479     0.69792      .   S
    C2213  O6480     0.69792      .   S
    C2214  O6480     0.69792      .   S
    C1108  O6481     0.69792      .   S
    C1109  O6481     0.69792      .   S
    C848   O6482     0.69792      .   S
    C849   O6482     0.69792      .   S
    C3226  O6483     0.94522      .   S
    C2643  O6483     0.94522      .   S
    C3226  O6484     0.96312      .   S
    C3203  O6484     0.96312      .   S
    C3226  O6485     0.94466      .   S
    C2641  O6485     0.94466      .   S
    C3217  O6486     0.94522      .   S
    C108   O6486     0.94522      .   S
    C3217  O6487     0.96312      .   S
    C3193  O6487     0.96312      .   S
    C3217  O6488     0.94461      .   S
    C106   O6488     0.94461      .   S
    C3227  O6489     0.94522      .   S
    C758   O6489     0.94522      .   S
    C3227  O6490     0.96312      .   S
    C3203  O6490     0.96312      .   S
    C3227  O6491     0.94453      .   S
    C756   O6491     0.94453      .   S
    C3222  O6492     0.94522      .   S
    C433   O6492     0.94522      .   S
    C3222  O6493     0.96312      .   S
    C3199  O6493     0.96312      .   S
    C3222  O6494     0.94466      .   S
    C431   O6494     0.94466      .   S
    C3216  O6495     0.94522      .   S
    C2383  O6495     0.94522      .   S
    C3216  O6496     0.96312      .   S
    C3193  O6496     0.96312      .   S
    C3216  O6497     0.94461      .   S
    C2381  O6497     0.94461      .   S
    C3223  O6498     0.94522      .   S
    C2903  O6498     0.94522      .   S
    C3223  O6499     0.96312      .   S
    C3199  O6499     0.96312      .   S
    C3223  O6500     0.94453      .   S
    C2901  O6500     0.94453      .   S
    C3506  O6501     0.63422      .   S
    C876   O6501     0.63422      .   S
    C3506  O6502     0.63422      .   S
    C1591  O6502     0.63422      .   S
    C3514  O6503     0.63422      .   S
    C1136  O6503     0.63422      .   S
    C3514  O6504     0.63422      .   S
    C2241  O6504     0.63422      .   S
    C3522  O6505     0.63422      .   S
    C1396  O6505     0.63422      .   S
    C3522  O6506     0.63422      .   S
    C2046  O6506     0.63422      .   S
    C3252  O6507     0.74058      .   S
    C3251  O6507     0.74058      .   S
    C3352  O6508     0.74058      .   S
    C3351  O6508     0.74058      .   S
    C3302  O6509     0.74058      .   S
    C3301  O6509     0.74058      .   S
    C889   O6510     0.93494      .   S
    C3370  O6510     0.93494      .   S
    C2059  O6511     0.93501      .   S
    C3450  O6511     0.93501      .   S
    C1409  O6512     0.93544      .   S
    C3450  O6512     0.93544      .   S
    C1604  O6513     0.93494      .   S
    C3370  O6513     0.93494      .   S
    C2254  O6514     0.93544      .   S
    C3410  O6514     0.93544      .   S
    C1149  O6515     0.93501      .   S
    C3410  O6515     0.93501      .   S
    C1369  O6516     0.54169      .   S
    C1415  O6516     0.54169      .   S
    C1369  O6517     0.70279      .   S
    C3454  O6517     0.70279      .   S
    C2214  O6518     0.54169      .   S
    C2260  O6518     0.54169      .   S
    C2214  O6519     0.70279      .   S
    C3414  O6519     0.70279      .   S
    C1109  O6520     0.54169      .   S
    C1155  O6520     0.54169      .   S
    C1109  O6521     0.70306      .   S
    C3414  O6521     0.70306      .   S
    C2019  O6522     0.54169      .   S
    C2065  O6522     0.54169      .   S
    C2019  O6523     0.70306      .   S
    C3454  O6523     0.70306      .   S
    C1564  O6524     0.54169      .   S
    C1610  O6524     0.54169      .   S
    C1564  O6525     0.70279      .   S
    C3374  O6525     0.70279      .   S
    C849   O6526     0.54169      .   S
    C895   O6526     0.54169      .   S
    C849   O6527     0.70279      .   S
    C3374  O6527     0.70279      .   S
    C108   O6528     0.63651      .   S
    C3257  O6528     0.63651      .   S
    C2383  O6529     0.63651      .   S
    C3257  O6529     0.63651      .   S
    C2903  O6530     0.63651      .   S
    C3307  O6530     0.63651      .   S
    C2643  O6531     0.63651      .   S
    C3357  O6531     0.63651      .   S
    C758   O6532     0.63651      .   S
    C3357  O6532     0.63651      .   S
    C433   O6533     0.63651      .   S
    C3307  O6533     0.63651      .   S
    C1396  O6534     0.93478      .   S
    C3141  O6534     0.93478      .   S
    C2046  O6535     0.93478      .   S
    C3134  O6535     0.93478      .   S
    C1136  O6536     0.93478      .   S
    C3137  O6536     0.93478      .   S
    C876   O6537     0.93478      .   S
    C3133  O6537     0.93478      .   S
    C2241  O6538     0.93478      .   S
    C3142  O6538     0.93478      .   S
    C1591  O6539     0.93478      .   S
    C3138  O6539     0.93478      .   S
    C40    O6540     0.94911      .   S
    C3192  O6540     0.94911      .   S
    C2965  O6541     0.94911      .   S
    C3198  O6541     0.94911      .   S
    C2445  O6542     0.94911      .   S
    C3192  O6542     0.94911      .   S
    C495   O6543     0.94911      .   S
    C3198  O6543     0.94911      .   S
    C2705  O6544     0.94911      .   S
    C3202  O6544     0.94911      .   S
    C690   O6545     0.94911      .   S
    C3202  O6545     0.94911      .   S
    C3257  O6546     0.71274      .   S
    C3258  O6546     0.71274      .   S
    C3357  O6547     0.71274      .   S
    C3358  O6547     0.71274      .   S
    C3307  O6548     0.71274      .   S
    C3308  O6548     0.71274      .   S
    C3374  O6549     0.74078      .   S
    C3373  O6549     0.74078      .   S
    C3454  O6550     0.74027      .   S
    C3453  O6550     0.74027      .   S
    C3414  O6551     0.74027      .   S
    C3413  O6551     0.74027      .   S
    C1399  O6552     0.63536      .   S
    C1371  O6552     0.63536      .   S
    C1594  O6553     0.63551      .   S
    C1566  O6553     0.63551      .   S
    C2244  O6554     0.63536      .   S
    C2216  O6554     0.63536      .   S
    C1139  O6555     0.63542      .   S
    C1111  O6555     0.63542      .   S
    C879   O6556     0.63551      .   S
    C851   O6556     0.63551      .   S
    C2049  O6557     0.63542      .   S
    C2021  O6557     0.63542      .   S
    C3450  O6558     0.93603      .   S
    C1400  O6558     0.93603      .   S
    C3450  O6559     0.93581      .   S
    C2050  O6559     0.93581      .   S
    C3410  O6560     0.93603      .   S
    C2245  O6560     0.93603      .   S
    C3410  O6561     0.93581      .   S
    C1140  O6561     0.93581      .   S
    C3370  O6562     0.93604      .   S
    C1595  O6562     0.93604      .   S
    C3370  O6563     0.93604      .   S
    C880   O6563     0.93604      .   S
    C3308  O6564     0.70659      .   S
    C2882  O6564     0.70659      .   S
    C3308  O6565     0.70659      .   S
    C412   O6565     0.70659      .   S
    C3258  O6566     0.70659      .   S
    C2362  O6566     0.70659      .   S
    C3258  O6567     0.70659      .   S
    C87    O6567     0.70659      .   S
    C3358  O6568     0.70659      .   S
    C2622  O6568     0.70659      .   S
    C3358  O6569     0.70659      .   S
    C737   O6569     0.70659      .   S
    C2660  O6570     0.54154      .   S
    C2622  O6570     0.54154      .   S
    C450   O6571     0.54154      .   S
    C412   O6571     0.54154      .   S
    C775   O6572     0.54154      .   S
    C737   O6572     0.54154      .   S
    C2400  O6573     0.54154      .   S
    C2362  O6573     0.54154      .   S
    C125   O6574     0.54154      .   S
    C87    O6574     0.54154      .   S
    C2920  O6575     0.54154      .   S
    C2882  O6575     0.54154      .   S
    C3413  O6576     0.63424      .   S
    C2243  O6576     0.63424      .   S
    C3413  O6577     0.63396      .   S
    C1138  O6577     0.63396      .   S
    C3453  O6578     0.63396      .   S
    C2048  O6578     0.63396      .   S
    C3453  O6579     0.63424      .   S
    C1398  O6579     0.63424      .   S
    C3373  O6580     0.63398      .   S
    C1593  O6580     0.63398      .   S
    C3373  O6581     0.63398      .   S
    C878   O6581     0.63398      .   S
    C3351  O6582     0.63450      .   S
    C747   O6582     0.63450      .   S
    C3351  O6583     0.63450      .   S
    C2632  O6583     0.63450      .   S
    C3251  O6584     0.63450      .   S
    C2372  O6584     0.63450      .   S
    C3251  O6585     0.63450      .   S
    C97    O6585     0.63450      .   S
    C3301  O6586     0.63450      .   S
    C2892  O6586     0.63450      .   S
    C3301  O6587     0.63450      .   S
    C422   O6587     0.63450      .   S
    C2622  O6588     0.70347      .   S
    C2621  O6588     0.70347      .   S
    C2362  O6589     0.70347      .   S
    C2361  O6589     0.70347      .   S
    C737   O6590     0.70347      .   S
    C736   O6590     0.70347      .   S
    C2882  O6591     0.70347      .   S
    C2881  O6591     0.70347      .   S
    C412   O6592     0.70347      .   S
    C411   O6592     0.70347      .   S
    C87    O6593     0.70347      .   S
    C86    O6593     0.70347      .   S
    C2243  O6594     0.93534      .   S
    C3142  O6594     0.93534      .   S
    C2048  O6595     0.93534      .   S
    C3134  O6595     0.93534      .   S
    C1593  O6596     0.93534      .   S
    C3138  O6596     0.93534      .   S
    C1138  O6597     0.93534      .   S
    C3137  O6597     0.93534      .   S
    C878   O6598     0.93534      .   S
    C3133  O6598     0.93534      .   S
    C1398  O6599     0.93534      .   S
    C3141  O6599     0.93534      .   S
    C3198  O6600     0.94911      .   S
    C430   O6600     0.94911      .   S
    C3198  O6601     0.94911      .   S
    C2900  O6601     0.94911      .   S
    C3202  O6602     0.94911      .   S
    C755   O6602     0.94911      .   S
    C3202  O6603     0.94911      .   S
    C2640  O6603     0.94911      .   S
    C3192  O6604     0.94911      .   S
    C2380  O6604     0.94911      .   S
    C3192  O6605     0.94911      .   S
    C105   O6605     0.94911      .   S
    C756   O6606     0.63637      .   S
    C732   O6606     0.63637      .   S
    C431   O6607     0.63643      .   S
    C407   O6607     0.63643      .   S
    C2641  O6608     0.63643      .   S
    C2617  O6608     0.63643      .   S
    C2901  O6609     0.63637      .   S
    C2877  O6609     0.63637      .   S
    C2381  O6610     0.63626      .   S
    C2357  O6610     0.63626      .   S
    C106   O6611     0.63626      .   S
    C82    O6611     0.63626      .   S
    C2881  O6612     0.54130      .   S
    C2919  O6612     0.54130      .   S
    C2881  O6613     0.70461      .   S
    C3306  O6613     0.70461      .   S
    C736   O6614     0.54130      .   S
    C774   O6614     0.54130      .   S
    C736   O6615     0.70461      .   S
    C3356  O6615     0.70461      .   S
    C2361  O6616     0.54130      .   S
    C2399  O6616     0.54130      .   S
    C2361  O6617     0.70434      .   S
    C3256  O6617     0.70434      .   S
    C2621  O6618     0.54130      .   S
    C2659  O6618     0.54130      .   S
    C2621  O6619     0.70434      .   S
    C3356  O6619     0.70434      .   S
    C411   O6620     0.54130      .   S
    C449   O6620     0.54130      .   S
    C411   O6621     0.70434      .   S
    C3306  O6621     0.70434      .   S
    C86    O6622     0.54130      .   S
    C124   O6622     0.54130      .   S
    C86    O6623     0.70434      .   S
    C3256  O6623     0.70434      .   S
    C2372  O6624     0.93586      .   S
    C2341  O6624     0.93586      .   S
    C97    O6625     0.93586      .   S
    C66    O6625     0.93586      .   S
    C747   O6626     0.93603      .   S
    C716   O6626     0.93603      .   S
    C2632  O6627     0.93594      .   S
    C2601  O6627     0.93594      .   S
    C2892  O6628     0.93603      .   S
    C2861  O6628     0.93603      .   S
    C422   O6629     0.93594      .   S
    C391   O6629     0.93594      .   S
    C1218  O6630     0.54154      .   S
    C1172  O6630     0.54154      .   S
    C1803  O6631     0.54175      .   S
    C1757  O6631     0.54175      .   S
    C2193  O6632     0.54169      .   S
    C2147  O6632     0.54169      .   S
    C1478  O6633     0.54169      .   S
    C1432  O6633     0.54169      .   S
    C1868  O6634     0.54154      .   S
    C1822  O6634     0.54154      .   S
    C958   O6635     0.54175      .   S
    C912   O6635     0.54175      .   S
    C2021  O6636     0.63396      .   S
    C1400  O6636     0.63396      .   S
    C2021  O6637     0.74599      .   S
    C2022  O6637     0.74599      .   S
    C1111  O6638     0.63396      .   S
    C2245  O6638     0.63396      .   S
    C1111  O6639     0.74599      .   S
    C1112  O6639     0.74599      .   S
    C2216  O6640     0.63418      .   S
    C1140  O6640     0.63418      .   S
    C2216  O6641     0.74565      .   S
    C2217  O6641     0.74565      .   S
    C851   O6642     0.63388      .   S
    C1595  O6642     0.63388      .   S
    C851   O6643     0.74597      .   S
    C852   O6643     0.74597      .   S
    C1566  O6644     0.63388      .   S
    C880   O6644     0.63388      .   S
    C1566  O6645     0.74597      .   S
    C1567  O6645     0.74597      .   S
    C1371  O6646     0.63418      .   S
    C2050  O6646     0.63418      .   S
    C1371  O6647     0.74565      .   S
    C1372  O6647     0.74565      .   S
    C3306  O6648     0.75176      .   S
    C3305  O6648     0.75176      .   S
    C3256  O6649     0.75176      .   S
    C3255  O6649     0.75176      .   S
    C3356  O6650     0.75176      .   S
    C3355  O6650     0.75176      .   S
    C3142  O6651     0.93478      .   S
    C1461  O6651     0.93478      .   S
    C3142  O6652     0.93534      .   S
    C1463  O6652     0.93534      .   S
    C3133  O6653     0.93478      .   S
    C1851  O6653     0.93478      .   S
    C3133  O6654     0.96235      .   S
    C3533  O6654     0.96235      .   S
    C3133  O6655     0.93534      .   S
    C1853  O6655     0.93534      .   S
    C3134  O6656     0.93478      .   S
    C941   O6656     0.93478      .   S
    C3134  O6657     0.96217      .   S
    C3534  O6657     0.96217      .   S
    C3134  O6658     0.93534      .   S
    C943   O6658     0.93534      .   S
    C3137  O6659     0.93478      .   S
    C1786  O6659     0.93478      .   S
    C3137  O6660     0.96217      .   S
    C3535  O6660     0.96217      .   S
    C3137  O6661     0.93534      .   S
    C1788  O6661     0.93534      .   S
    C3138  O6662     0.93478      .   S
    C1201  O6662     0.93478      .   S
    C3138  O6663     0.93534      .   S
    C1203  O6663     0.93534      .   S
    C3141  O6664     0.93478      .   S
    C2176  O6664     0.93478      .   S
    C3141  O6665     0.96244      .   S
    C3534  O6665     0.96244      .   S
    C3141  O6666     0.93534      .   S
    C2178  O6666     0.93534      .   S
    C1417  O6667     0.54131      .   S
    C1373  O6667     0.54131      .   S
    C1157  O6668     0.54131      .   S
    C1113  O6668     0.54131      .   S
    C897   O6669     0.54131      .   S
    C853   O6669     0.54131      .   S
    C1612  O6670     0.54131      .   S
    C1568  O6670     0.54131      .   S
    C2262  O6671     0.54131      .   S
    C2218  O6671     0.54131      .   S
    C2067  O6672     0.54131      .   S
    C2023  O6672     0.54131      .   S
    C3355  O6673     0.63617      .   S
    C757   O6673     0.63617      .   S
    C3355  O6674     0.63562      .   S
    C2642  O6674     0.63562      .   S
    C3305  O6675     0.63617      .   S
    C2902  O6675     0.63617      .   S
    C3305  O6676     0.63562      .   S
    C432   O6676     0.63562      .   S
    C3255  O6677     0.63614      .   S
    C107   O6677     0.63614      .   S
    C3255  O6678     0.63614      .   S
    C2382  O6678     0.63614      .   S
    C2176  O6679     0.63422      .   S
    C3518  O6679     0.63422      .   S
    C1461  O6680     0.63422      .   S
    C3524  O6680     0.63422      .   S
    C1201  O6681     0.63422      .   S
    C3516  O6681     0.63422      .   S
    C1786  O6682     0.63422      .   S
    C3510  O6682     0.63422      .   S
    C1851  O6683     0.63422      .   S
    C3526  O6683     0.63422      .   S
    C941   O6684     0.63422      .   S
    C3508  O6684     0.63422      .   S
    C1822  O6685     0.69784      .   S
    C1432  O6685     0.69784      .   S
    C1822  O6686     0.70424      .   S
    C3527  O6686     0.70424      .   S
    C1432  O6687     0.70440      .   S
    C3525  O6687     0.70440      .   S
    C2147  O6688     0.69784      .   S
    C1172  O6688     0.69784      .   S
    C2147  O6689     0.70440      .   S
    C3519  O6689     0.70440      .   S
    C1757  O6690     0.69784      .   S
    C912   O6690     0.69784      .   S
    C1757  O6691     0.70418      .   S
    C3511  O6691     0.70418      .   S
    C1172  O6692     0.70424      .   S
    C3517  O6692     0.70424      .   S
    C912   O6693     0.70418      .   S
    C3509  O6693     0.70418      .   S
    C757   O6694     0.94495      .   S
    C716   O6694     0.94495      .   S
    C2902  O6695     0.94495      .   S
    C2861  O6695     0.94495      .   S
    C2642  O6696     0.94495      .   S
    C2601  O6696     0.94495      .   S
    C432   O6697     0.94495      .   S
    C391   O6697     0.94495      .   S
    C107   O6698     0.94495      .   S
    C66    O6698     0.94495      .   S
    C2382  O6699     0.94495      .   S
    C2341  O6699     0.94495      .   S
    C2617  O6700     0.63735      .   S
    C2640  O6700     0.63735      .   S
    C2617  O6701     0.75417      .   S
    C2618  O6701     0.75417      .   S
    C82    O6702     0.63735      .   S
    C105   O6702     0.63735      .   S
    C82    O6703     0.75417      .   S
    C83    O6703     0.75417      .   S
    C407   O6704     0.63735      .   S
    C430   O6704     0.63735      .   S
    C407   O6705     0.75417      .   S
    C408   O6705     0.75417      .   S
    C2357  O6706     0.63735      .   S
    C2380  O6706     0.63735      .   S
    C2357  O6707     0.75417      .   S
    C2358  O6707     0.75417      .   S
    C2877  O6708     0.63735      .   S
    C2900  O6708     0.63735      .   S
    C2877  O6709     0.75417      .   S
    C2878  O6709     0.75417      .   S
    C732   O6710     0.63735      .   S
    C755   O6710     0.63735      .   S
    C732   O6711     0.75417      .   S
    C733   O6711     0.75417      .   S
    C3535  O6712     0.96244      .   S
    C3135  O6712     0.96244      .   S
    C3533  O6713     0.96235      .   S
    C3143  O6713     0.96235      .   S
    C2392  O6714     0.54131      .   S
    C2348  O6714     0.54131      .   S
    C117   O6715     0.54131      .   S
    C73    O6715     0.54131      .   S
    C2912  O6716     0.54131      .   S
    C2868  O6716     0.54131      .   S
    C2652  O6717     0.54131      .   S
    C2608  O6717     0.54131      .   S
    C767   O6718     0.54131      .   S
    C723   O6718     0.54131      .   S
    C442   O6719     0.54131      .   S
    C398   O6719     0.54131      .   S
    C2023  O6720     0.70420      .   S
    C2022  O6720     0.70420      .   S
    C2023  O6721     0.70255      .   S
    C918   O6721     0.70255      .   S
    C853   O6722     0.70411      .   S
    C852   O6722     0.70411      .   S
    C853   O6723     0.70255      .   S
    C1828  O6723     0.70255      .   S
    C1568  O6724     0.70411      .   S
    C1567  O6724     0.70411      .   S
    C1568  O6725     0.70255      .   S
    C1178  O6725     0.70255      .   S
    C1373  O6726     0.70441      .   S
    C1372  O6726     0.70441      .   S
    C1373  O6727     0.70255      .   S
    C2153  O6727     0.70255      .   S
    C2218  O6728     0.70441      .   S
    C2217  O6728     0.70441      .   S
    C2218  O6729     0.70255      .   S
    C1438  O6729     0.70255      .   S
    C1113  O6730     0.70420      .   S
    C1112  O6730     0.70420      .   S
    C1113  O6731     0.70255      .   S
    C1763  O6731     0.70255      .   S
    C1112  O6732     0.70353      .   S
    C1110  O6732     0.70353      .   S
    C2022  O6733     0.70353      .   S
    C2020  O6733     0.70353      .   S
    C1372  O6734     0.70348      .   S
    C1370  O6734     0.70348      .   S
    C2217  O6735     0.70348      .   S
    C2215  O6735     0.70348      .   S
    C1567  O6736     0.70363      .   S
    C1565  O6736     0.70363      .   S
    C852   O6737     0.70363      .   S
    C850   O6737     0.70363      .   S
    C2658  O6738     0.54115      .   S
    C2620  O6738     0.54115      .   S
    C2918  O6739     0.54121      .   S
    C2880  O6739     0.54121      .   S
    C773   O6740     0.54121      .   S
    C735   O6740     0.54121      .   S
    C448   O6741     0.54115      .   S
    C410   O6741     0.54115      .   S
    C2398  O6742     0.54132      .   S
    C2360  O6742     0.54132      .   S
    C123   O6743     0.54132      .   S
    C85    O6743     0.54132      .   S
    C716   O6744     0.94352      .   S
    C749   O6744     0.94352      .   S
    C716   O6745     0.96303      .   S
    C3359  O6745     0.96303      .   S
    C716   O6746     0.93592      .   S
    C760   O6746     0.93592      .   S
    C2341  O6747     0.94334      .   S
    C2374  O6747     0.94334      .   S
    C2341  O6748     0.96266      .   S
    C3259  O6748     0.96266      .   S
    C2341  O6749     0.93629      .   S
    C2385  O6749     0.93629      .   S
    C2601  O6750     0.94364      .   S
    C2634  O6750     0.94364      .   S
    C2601  O6751     0.96249      .   S
    C3359  O6751     0.96249      .   S
    C2601  O6752     0.93616      .   S
    C2645  O6752     0.93616      .   S
    C2861  O6753     0.94352      .   S
    C2894  O6753     0.94352      .   S
    C2861  O6754     0.96303      .   S
    C3309  O6754     0.96303      .   S
    C2861  O6755     0.93592      .   S
    C2905  O6755     0.93592      .   S
    C391   O6756     0.94364      .   S
    C424   O6756     0.94364      .   S
    C391   O6757     0.96249      .   S
    C3309  O6757     0.96249      .   S
    C391   O6758     0.93616      .   S
    C435   O6758     0.93616      .   S
    C66    O6759     0.94334      .   S
    C99    O6759     0.94334      .   S
    C66    O6760     0.96266      .   S
    C3259  O6760     0.96266      .   S
    C66    O6761     0.93629      .   S
    C110   O6761     0.93629      .   S
    C1788  O6762     0.63396      .   S
    C3393  O6762     0.63396      .   S
    C1853  O6763     0.63398      .   S
    C3473  O6763     0.63398      .   S
    C1203  O6764     0.63398      .   S
    C3423  O6764     0.63398      .   S
    C2178  O6765     0.63402      .   S
    C3433  O6765     0.63402      .   S
    C1463  O6766     0.63402      .   S
    C3463  O6766     0.63402      .   S
    C943   O6767     0.63396      .   S
    C3383  O6767     0.63396      .   S
    C3518  O6768     0.70311      .   S
    C3519  O6768     0.70311      .   S
    C3518  O6769     0.63422      .   S
    C1266  O6769     0.63422      .   S
    C3508  O6770     0.70311      .   S
    C3509  O6770     0.70311      .   S
    C3508  O6771     0.63422      .   S
    C1721  O6771     0.63422      .   S
    C3516  O6772     0.70311      .   S
    C3517  O6772     0.70311      .   S
    C3516  O6773     0.63422      .   S
    C2111  O6773     0.63422      .   S
    C3524  O6774     0.70311      .   S
    C3525  O6774     0.70311      .   S
    C3524  O6775     0.63422      .   S
    C1916  O6775     0.63422      .   S
    C3510  O6776     0.70311      .   S
    C3511  O6776     0.70311      .   S
    C3510  O6777     0.63422      .   S
    C1006  O6777     0.63422      .   S
    C3526  O6778     0.70311      .   S
    C3527  O6778     0.70311      .   S
    C3526  O6779     0.63422      .   S
    C1526  O6779     0.63422      .   S
    C3519  O6780     0.70440      .   S
    C1237  O6780     0.70440      .   S
    C3509  O6781     0.70445      .   S
    C1692  O6781     0.70445      .   S
    C3511  O6782     0.70445      .   S
    C977   O6782     0.70445      .   S
    C3527  O6783     0.70424      .   S
    C1497  O6783     0.70424      .   S
    C3525  O6784     0.70440      .   S
    C1887  O6784     0.70440      .   S
    C3517  O6785     0.70424      .   S
    C2082  O6785     0.70424      .   S
    C2868  O6786     0.70255      .   S
    C723   O6786     0.70255      .   S
    C2868  O6787     0.70420      .   S
    C2867  O6787     0.70420      .   S
    C73    O6788     0.70255      .   S
    C2608  O6788     0.70255      .   S
    C73    O6789     0.70425      .   S
    C72    O6789     0.70425      .   S
    C723   O6790     0.70420      .   S
    C722   O6790     0.70420      .   S
    C398   O6791     0.70255      .   S
    C2348  O6791     0.70255      .   S
    C398   O6792     0.70441      .   S
    C397   O6792     0.70441      .   S
    C2608  O6793     0.70441      .   S
    C2607  O6793     0.70441      .   S
    C2348  O6794     0.70425      .   S
    C2347  O6794     0.70425      .   S
    C749   O6795     0.63542      .   S
    C721   O6795     0.63542      .   S
    C2894  O6796     0.63542      .   S
    C2866  O6796     0.63542      .   S
    C99    O6797     0.63520      .   S
    C71    O6797     0.63520      .   S
    C2374  O6798     0.63520      .   S
    C2346  O6798     0.63520      .   S
    C2634  O6799     0.63536      .   S
    C2606  O6799     0.63536      .   S
    C424   O6800     0.63536      .   S
    C396   O6800     0.63536      .   S
    C1480  O6801     0.54169      .   S
    C1434  O6801     0.54169      .   S
    C1805  O6802     0.54169      .   S
    C1759  O6802     0.54169      .   S
    C1220  O6803     0.54169      .   S
    C1174  O6803     0.54169      .   S
    C1870  O6804     0.54169      .   S
    C1824  O6804     0.54169      .   S
    C960   O6805     0.54169      .   S
    C914   O6805     0.54169      .   S
    C2195  O6806     0.54169      .   S
    C2149  O6806     0.54169      .   S
    C2620  O6807     0.70505      .   S
    C2618  O6807     0.70505      .   S
    C2620  O6808     0.70324      .   S
    C2619  O6808     0.70324      .   S
    C85    O6809     0.70505      .   S
    C83    O6809     0.70505      .   S
    C85    O6810     0.70324      .   S
    C84    O6810     0.70324      .   S
    C735   O6811     0.70505      .   S
    C733   O6811     0.70505      .   S
    C735   O6812     0.70324      .   S
    C734   O6812     0.70324      .   S
    C410   O6813     0.70505      .   S
    C408   O6813     0.70505      .   S
    C410   O6814     0.70324      .   S
    C409   O6814     0.70324      .   S
    C2880  O6815     0.70505      .   S
    C2878  O6815     0.70505      .   S
    C2880  O6816     0.70324      .   S
    C2879  O6816     0.70324      .   S
    C2360  O6817     0.70505      .   S
    C2358  O6817     0.70505      .   S
    C2360  O6818     0.70324      .   S
    C2359  O6818     0.70324      .   S
    C83    O6819     0.70565      .   S
    C81    O6819     0.70565      .   S
    C2618  O6820     0.70580      .   S
    C2616  O6820     0.70580      .   S
    C2358  O6821     0.70565      .   S
    C2356  O6821     0.70565      .   S
    C733   O6822     0.70575      .   S
    C731   O6822     0.70575      .   S
    C408   O6823     0.70580      .   S
    C406   O6823     0.70580      .   S
    C2878  O6824     0.70575      .   S
    C2876  O6824     0.70575      .   S
    C1222  O6825     0.54131      .   S
    C1178  O6825     0.54131      .   S
    C1482  O6826     0.54131      .   S
    C1438  O6826     0.54131      .   S
    C2197  O6827     0.54131      .   S
    C2153  O6827     0.54131      .   S
    C1872  O6828     0.54131      .   S
    C1828  O6828     0.54131      .   S
    C962   O6829     0.54131      .   S
    C918   O6829     0.54131      .   S
    C1807  O6830     0.54131      .   S
    C1763  O6830     0.54131      .   S
    C1763  O6831     0.70420      .   S
    C1762  O6831     0.70420      .   S
    C1438  O6832     0.70425      .   S
    C1437  O6832     0.70425      .   S
    C918   O6833     0.70420      .   S
    C917   O6833     0.70420      .   S
    C1178  O6834     0.70411      .   S
    C1177  O6834     0.70411      .   S
    C1828  O6835     0.70411      .   S
    C1827  O6835     0.70411      .   S
    C2153  O6836     0.70425      .   S
    C2152  O6836     0.70425      .   S
    C850   O6837     0.54129      .   S
    C896   O6837     0.54129      .   S
    C850   O6838     0.69909      .   S
    C1825  O6838     0.69909      .   S
    C2215  O6839     0.54129      .   S
    C2261  O6839     0.54129      .   S
    C2215  O6840     0.69909      .   S
    C1435  O6840     0.69909      .   S
    C1565  O6841     0.54129      .   S
    C1611  O6841     0.54129      .   S
    C1565  O6842     0.69909      .   S
    C1175  O6842     0.69909      .   S
    C2020  O6843     0.54129      .   S
    C2066  O6843     0.54129      .   S
    C2020  O6844     0.69909      .   S
    C915   O6844     0.69909      .   S
    C1110  O6845     0.54129      .   S
    C1156  O6845     0.54129      .   S
    C1110  O6846     0.69909      .   S
    C1760  O6846     0.69909      .   S
    C1370  O6847     0.54129      .   S
    C1416  O6847     0.54129      .   S
    C1370  O6848     0.69909      .   S
    C2150  O6848     0.69909      .   S
    C1266  O6849     0.93478      .   S
    C3139  O6849     0.93478      .   S
    C1916  O6850     0.93478      .   S
    C3135  O6850     0.93478      .   S
    C2111  O6851     0.93478      .   S
    C3143  O6851     0.93478      .   S
    C1721  O6852     0.93478      .   S
    C3139  O6852     0.93478      .   S
    C1006  O6853     0.93478      .   S
    C3135  O6853     0.93478      .   S
    C1526  O6854     0.93478      .   S
    C3143  O6854     0.93478      .   S
    C1237  O6855     0.69784      .   S
    C2082  O6855     0.69784      .   S
    C1237  O6856     0.54169      .   S
    C1283  O6856     0.54169      .   S
    C2082  O6857     0.54154      .   S
    C2128  O6857     0.54154      .   S
    C1887  O6858     0.69784      .   S
    C1497  O6858     0.69784      .   S
    C1887  O6859     0.54169      .   S
    C1933  O6859     0.54169      .   S
    C1497  O6860     0.54154      .   S
    C1543  O6860     0.54154      .   S
    C977   O6861     0.69784      .   S
    C1692  O6861     0.69784      .   S
    C977   O6862     0.54147      .   S
    C1023  O6862     0.54147      .   S
    C1692  O6863     0.54147      .   S
    C1738  O6863     0.54147      .   S
    C2606  O6864     0.74565      .   S
    C2607  O6864     0.74565      .   S
    C2606  O6865     0.63418      .   S
    C750   O6865     0.63418      .   S
    C2346  O6866     0.74628      .   S
    C2347  O6866     0.74628      .   S
    C2346  O6867     0.63404      .   S
    C100   O6867     0.63404      .   S
    C721   O6868     0.74599      .   S
    C722   O6868     0.74599      .   S
    C721   O6869     0.63396      .   S
    C2635  O6869     0.63396      .   S
    C396   O6870     0.74565      .   S
    C397   O6870     0.74565      .   S
    C396   O6871     0.63418      .   S
    C2895  O6871     0.63418      .   S
    C71    O6872     0.74628      .   S
    C72    O6872     0.74628      .   S
    C71    O6873     0.63404      .   S
    C2375  O6873     0.63404      .   S
    C2866  O6874     0.74599      .   S
    C2867  O6874     0.74599      .   S
    C2866  O6875     0.63396      .   S
    C425   O6875     0.63396      .   S
    C3383  O6876     0.63424      .   S
    C1723  O6876     0.63424      .   S
    C3383  O6877     0.74027      .   S
    C3384  O6877     0.74027      .   S
    C3433  O6878     0.63402      .   S
    C1268  O6878     0.63402      .   S
    C3433  O6879     0.74063      .   S
    C3434  O6879     0.74063      .   S
    C3423  O6880     0.63398      .   S
    C2113  O6880     0.63398      .   S
    C3423  O6881     0.74078      .   S
    C3424  O6881     0.74078      .   S
    C3393  O6882     0.63424      .   S
    C1008  O6882     0.63424      .   S
    C3393  O6883     0.74027      .   S
    C3394  O6883     0.74027      .   S
    C3463  O6884     0.63402      .   S
    C1918  O6884     0.63402      .   S
    C3463  O6885     0.74063      .   S
    C3464  O6885     0.74063      .   S
    C3473  O6886     0.63398      .   S
    C1528  O6886     0.63398      .   S
    C3473  O6887     0.74078      .   S
    C3474  O6887     0.74078      .   S
    C72    O6888     0.70332      .   S
    C70    O6888     0.70332      .   S
    C397   O6889     0.70348      .   S
    C395   O6889     0.70348      .   S
    C722   O6890     0.70353      .   S
    C720   O6890     0.70353      .   S
    C2867  O6891     0.70353      .   S
    C2865  O6891     0.70353      .   S
    C2607  O6892     0.70348      .   S
    C2605  O6892     0.70348      .   S
    C2347  O6893     0.70332      .   S
    C2345  O6893     0.70332      .   S
    C3139  O6894     0.93534      .   S
    C1723  O6894     0.93534      .   S
    C3139  O6895     0.93534      .   S
    C1268  O6895     0.93534      .   S
    C3143  O6896     0.93534      .   S
    C1528  O6896     0.93534      .   S
    C3143  O6897     0.93534      .   S
    C2113  O6897     0.93534      .   S
    C3135  O6898     0.93534      .   S
    C1918  O6898     0.93534      .   S
    C3135  O6899     0.93534      .   S
    C1008  O6899     0.93534      .   S
    C110   O6900     0.63522      .   S
    C2364  O6900     0.63522      .   S
    C435   O6901     0.63525      .   S
    C2884  O6901     0.63525      .   S
    C2385  O6902     0.63522      .   S
    C89    O6902     0.63522      .   S
    C760   O6903     0.63519      .   S
    C2624  O6903     0.63519      .   S
    C2905  O6904     0.63519      .   S
    C414   O6904     0.63519      .   S
    C2645  O6905     0.63525      .   S
    C739   O6905     0.63525      .   S
    C1759  O6906     0.70306      .   S
    C3394  O6906     0.70306      .   S
    C1759  O6907     0.69792      .   S
    C1758  O6907     0.69792      .   S
    C2149  O6908     0.70283      .   S
    C3434  O6908     0.70283      .   S
    C2149  O6909     0.69792      .   S
    C2148  O6909     0.69792      .   S
    C1174  O6910     0.70279      .   S
    C3424  O6910     0.70279      .   S
    C1174  O6911     0.69792      .   S
    C1173  O6911     0.69792      .   S
    C1824  O6912     0.70279      .   S
    C3474  O6912     0.70279      .   S
    C1824  O6913     0.69792      .   S
    C1823  O6913     0.69792      .   S
    C1434  O6914     0.70283      .   S
    C3464  O6914     0.70283      .   S
    C1434  O6915     0.69792      .   S
    C1433  O6915     0.69792      .   S
    C914   O6916     0.70306      .   S
    C3384  O6916     0.70306      .   S
    C914   O6917     0.69792      .   S
    C913   O6917     0.69792      .   S
    C772   O6918     0.54132      .   S
    C734   O6918     0.54132      .   S
    C2917  O6919     0.54132      .   S
    C2879  O6919     0.54132      .   S
    C122   O6920     0.54143      .   S
    C84    O6920     0.54143      .   S
    C2657  O6921     0.54112      .   S
    C2619  O6921     0.54112      .   S
    C2397  O6922     0.54143      .   S
    C2359  O6922     0.54143      .   S
    C447   O6923     0.54112      .   S
    C409   O6923     0.54112      .   S
    C409   O6924     0.70517      .   S
    C405   O6924     0.70517      .   S
    C2619  O6925     0.70517      .   S
    C2615  O6925     0.70517      .   S
    C84    O6926     0.70517      .   S
    C80    O6926     0.70517      .   S
    C734   O6927     0.70517      .   S
    C730   O6927     0.70517      .   S
    C2359  O6928     0.70517      .   S
    C2355  O6928     0.70517      .   S
    C2879  O6929     0.70517      .   S
    C2875  O6929     0.70517      .   S
    C1804  O6930     0.54175      .   S
    C1758  O6930     0.54175      .   S
    C1219  O6931     0.54148      .   S
    C1173  O6931     0.54148      .   S
    C2194  O6932     0.54153      .   S
    C2148  O6932     0.54153      .   S
    C959   O6933     0.54175      .   S
    C913   O6933     0.54175      .   S
    C1479  O6934     0.54153      .   S
    C1433  O6934     0.54153      .   S
    C1869  O6935     0.54148      .   S
    C1823  O6935     0.54148      .   S
    C2876  O6936     0.54149      .   S
    C2916  O6936     0.54149      .   S
    C2876  O6937     0.70600      .   S
    C2873  O6937     0.70600      .   S
    C731   O6938     0.54149      .   S
    C771   O6938     0.54149      .   S
    C731   O6939     0.70600      .   S
    C728   O6939     0.70600      .   S
    C2356  O6940     0.54171      .   S
    C2396  O6940     0.54171      .   S
    C2356  O6941     0.70600      .   S
    C2353  O6941     0.70600      .   S
    C406   O6942     0.54109      .   S
    C446   O6942     0.54109      .   S
    C406   O6943     0.70600      .   S
    C403   O6943     0.70600      .   S
    C81    O6944     0.54171      .   S
    C121   O6944     0.54171      .   S
    C81    O6945     0.70600      .   S
    C78    O6945     0.70600      .   S
    C2616  O6946     0.54109      .   S
    C2656  O6946     0.54109      .   S
    C2616  O6947     0.70600      .   S
    C2613  O6947     0.70600      .   S
    C2152  O6948     0.70332      .   S
    C2150  O6948     0.70332      .   S
    C2152  O6949     0.74628      .   S
    C2151  O6949     0.74628      .   S
    C1762  O6950     0.70353      .   S
    C1760  O6950     0.70353      .   S
    C1762  O6951     0.74599      .   S
    C1761  O6951     0.74599      .   S
    C1177  O6952     0.70363      .   S
    C1175  O6952     0.70363      .   S
    C1177  O6953     0.74597      .   S
    C1176  O6953     0.74597      .   S
    C917   O6954     0.70353      .   S
    C915   O6954     0.70353      .   S
    C917   O6955     0.74599      .   S
    C916   O6955     0.74599      .   S
    C1827  O6956     0.70363      .   S
    C1825  O6956     0.70363      .   S
    C1827  O6957     0.74597      .   S
    C1826  O6957     0.74597      .   S
    C1437  O6958     0.70332      .   S
    C1435  O6958     0.70332      .   S
    C1437  O6959     0.74628      .   S
    C1436  O6959     0.74628      .   S
    C778   O6960     0.54146      .   S
    C744   O6960     0.54146      .   S
    C2923  O6961     0.54146      .   S
    C2889  O6961     0.54146      .   S
    C2663  O6962     0.54156      .   S
    C2629  O6962     0.54156      .   S
    C2403  O6963     0.54156      .   S
    C2369  O6963     0.54156      .   S
    C128   O6964     0.54156      .   S
    C94    O6964     0.54156      .   S
    C453   O6965     0.54156      .   S
    C419   O6965     0.54156      .   S
    C1435  O6966     0.54129      .   S
    C1481  O6966     0.54129      .   S
    C1825  O6967     0.54129      .   S
    C1871  O6967     0.54129      .   S
    C2150  O6968     0.54129      .   S
    C2196  O6968     0.54129      .   S
    C1760  O6969     0.54129      .   S
    C1806  O6969     0.54129      .   S
    C1175  O6970     0.54129      .   S
    C1221  O6970     0.54129      .   S
    C915   O6971     0.54129      .   S
    C961   O6971     0.54129      .   S
    C3424  O6972     0.70279      .   S
    C2084  O6972     0.70279      .   S
    C3434  O6973     0.70283      .   S
    C1239  O6973     0.70283      .   S
    C3474  O6974     0.70279      .   S
    C1499  O6974     0.70279      .   S
    C3464  O6975     0.70283      .   S
    C1889  O6975     0.70283      .   S
    C3384  O6976     0.70279      .   S
    C1694  O6976     0.70279      .   S
    C3394  O6977     0.70279      .   S
    C979   O6977     0.70279      .   S
    C2375  O6978     0.93611      .   S
    C3250  O6978     0.93611      .   S
    C100   O6979     0.93611      .   S
    C3250  O6979     0.93611      .   S
    C2635  O6980     0.93603      .   S
    C3350  O6980     0.93603      .   S
    C425   O6981     0.93603      .   S
    C3300  O6981     0.93603      .   S
    C2895  O6982     0.93581      .   S
    C3300  O6982     0.93581      .   S
    C750   O6983     0.93581      .   S
    C3350  O6983     0.93581      .   S
    C1433  O6984     0.70302      .   S
    C3462  O6984     0.70302      .   S
    C1758  O6985     0.70302      .   S
    C3392  O6985     0.70302      .   S
    C1173  O6986     0.70302      .   S
    C3422  O6986     0.70302      .   S
    C913   O6987     0.70302      .   S
    C3382  O6987     0.70302      .   S
    C2148  O6988     0.70302      .   S
    C3432  O6988     0.70302      .   S
    C1823  O6989     0.70302      .   S
    C3472  O6989     0.70302      .   S
    C395   O6990     0.69909      .   S
    C2345  O6990     0.69909      .   S
    C395   O6991     0.54129      .   S
    C441   O6991     0.54129      .   S
    C720   O6992     0.69909      .   S
    C2865  O6992     0.69909      .   S
    C720   O6993     0.54129      .   S
    C766   O6993     0.54129      .   S
    C2345  O6994     0.54129      .   S
    C2391  O6994     0.54129      .   S
    C70    O6995     0.69909      .   S
    C2605  O6995     0.69909      .   S
    C70    O6996     0.54129      .   S
    C116   O6996     0.54129      .   S
    C2865  O6997     0.54129      .   S
    C2911  O6997     0.54129      .   S
    C2605  O6998     0.54129      .   S
    C2651  O6998     0.54129      .   S
    C3250  O6999     0.93487      .   S
    C2384  O6999     0.93487      .   S
    C3250  O7000     0.93487      .   S
    C109   O7000     0.93487      .   S
    C3350  O7001     0.93501      .   S
    C759   O7001     0.93501      .   S
    C3350  O7002     0.93544      .   S
    C2644  O7002     0.93544      .   S
    C3300  O7003     0.93544      .   S
    C434   O7003     0.93544      .   S
    C3300  O7004     0.93501      .   S
    C2904  O7004     0.93501      .   S
    C414   O7005     0.63314      .   S
    C434   O7005     0.63314      .   S
    C414   O7006     0.73985      .   S
    C415   O7006     0.73985      .   S
    C2364  O7007     0.63341      .   S
    C2384  O7007     0.63341      .   S
    C2364  O7008     0.73985      .   S
    C2365  O7008     0.73985      .   S
    C2624  O7009     0.63314      .   S
    C2644  O7009     0.63314      .   S
    C2624  O7010     0.73985      .   S
    C2625  O7010     0.73985      .   S
    C739   O7011     0.63336      .   S
    C759   O7011     0.63336      .   S
    C739   O7012     0.73985      .   S
    C740   O7012     0.73985      .   S
    C89    O7013     0.63341      .   S
    C109   O7013     0.63341      .   S
    C89    O7014     0.73985      .   S
    C90    O7014     0.73985      .   S
    C2884  O7015     0.63336      .   S
    C2904  O7015     0.63336      .   S
    C2884  O7016     0.73985      .   S
    C2885  O7016     0.73985      .   S
    C2889  O7017     0.70056      .   S
    C2885  O7017     0.70056      .   S
    C2889  O7018     0.69514      .   S
    C2890  O7018     0.69514      .   S
    C2369  O7019     0.70057      .   S
    C2365  O7019     0.70057      .   S
    C2369  O7020     0.69514      .   S
    C2370  O7020     0.69514      .   S
    C94    O7021     0.70057      .   S
    C90    O7021     0.70057      .   S
    C94    O7022     0.69514      .   S
    C95    O7022     0.69514      .   S
    C2629  O7023     0.70031      .   S
    C2625  O7023     0.70031      .   S
    C2629  O7024     0.69514      .   S
    C2630  O7024     0.69514      .   S
    C419   O7025     0.70031      .   S
    C415   O7025     0.70031      .   S
    C419   O7026     0.69514      .   S
    C420   O7026     0.69514      .   S
    C744   O7027     0.70056      .   S
    C740   O7027     0.70056      .   S
    C744   O7028     0.69514      .   S
    C745   O7028     0.69514      .   S
    C405   O7029     0.70575      .   S
    C403   O7029     0.70575      .   S
    C405   O7030     0.75436      .   S
    C404   O7030     0.75436      .   S
    C2875  O7031     0.70555      .   S
    C2873  O7031     0.70555      .   S
    C2875  O7032     0.75436      .   S
    C2874  O7032     0.75436      .   S
    C730   O7033     0.70555      .   S
    C728   O7033     0.70555      .   S
    C730   O7034     0.75436      .   S
    C729   O7034     0.75436      .   S
    C2355  O7035     0.70544      .   S
    C2353  O7035     0.70544      .   S
    C2355  O7036     0.75436      .   S
    C2354  O7036     0.75436      .   S
    C2615  O7037     0.70575      .   S
    C2613  O7037     0.70575      .   S
    C2615  O7038     0.75436      .   S
    C2614  O7038     0.75436      .   S
    C80    O7039     0.70544      .   S
    C78    O7039     0.70544      .   S
    C80    O7040     0.75436      .   S
    C79    O7040     0.75436      .   S
    C2353  O7041     0.54117      .   S
    C2395  O7041     0.54117      .   S
    C78    O7042     0.54117      .   S
    C120   O7042     0.54117      .   S
    C2873  O7043     0.54117      .   S
    C2915  O7043     0.54117      .   S
    C728   O7044     0.54117      .   S
    C770   O7044     0.54117      .   S
    C403   O7045     0.54117      .   S
    C445   O7045     0.54117      .   S
    C2613  O7046     0.54117      .   S
    C2655  O7046     0.54117      .   S
    C944   O7047     0.63542      .   S
    C916   O7047     0.63542      .   S
    C944   O7048     0.94352      .   S
    C911   O7048     0.94352      .   S
    C1789  O7049     0.63542      .   S
    C1761  O7049     0.63542      .   S
    C1789  O7050     0.94352      .   S
    C1756  O7050     0.94352      .   S
    C1854  O7051     0.63551      .   S
    C1826  O7051     0.63551      .   S
    C1854  O7052     0.94357      .   S
    C1821  O7052     0.94357      .   S
    C2179  O7053     0.63520      .   S
    C2151  O7053     0.63520      .   S
    C2179  O7054     0.94334      .   S
    C2146  O7054     0.94334      .   S
    C1204  O7055     0.63551      .   S
    C1176  O7055     0.63551      .   S
    C1204  O7056     0.94357      .   S
    C1171  O7056     0.94357      .   S
    C1464  O7057     0.63520      .   S
    C1436  O7057     0.63520      .   S
    C1464  O7058     0.94334      .   S
    C1431  O7058     0.94334      .   S
    C2151  O7059     0.63404      .   S
    C1270  O7059     0.63404      .   S
    C1826  O7060     0.63388      .   S
    C1530  O7060     0.63388      .   S
    C1176  O7061     0.63388      .   S
    C2115  O7061     0.63388      .   S
    C1761  O7062     0.63396      .   S
    C1010  O7062     0.63396      .   S
    C916   O7063     0.63396      .   S
    C1725  O7063     0.63396      .   S
    C1436  O7064     0.63404      .   S
    C1920  O7064     0.63404      .   S
    C779   O7065     0.54145      .   S
    C745   O7065     0.54145      .   S
    C454   O7066     0.54169      .   S
    C420   O7066     0.54169      .   S
    C2664  O7067     0.54169      .   S
    C2630  O7067     0.54169      .   S
    C129   O7068     0.54144      .   S
    C95    O7068     0.54144      .   S
    C2924  O7069     0.54145      .   S
    C2890  O7069     0.54145      .   S
    C2404  O7070     0.54144      .   S
    C2370  O7070     0.54144      .   S
    C740   O7071     0.70508      .   S
    C738   O7071     0.70508      .   S
    C415   O7072     0.70508      .   S
    C413   O7072     0.70508      .   S
    C2885  O7073     0.70508      .   S
    C2883  O7073     0.70508      .   S
    C90    O7074     0.70508      .   S
    C88    O7074     0.70508      .   S
    C2365  O7075     0.70508      .   S
    C2363  O7075     0.70508      .   S
    C2625  O7076     0.70508      .   S
    C2623  O7076     0.70508      .   S
    C979   O7077     0.54169      .   S
    C1025  O7077     0.54169      .   S
    C979   O7078     0.69792      .   S
    C978   O7078     0.69792      .   S
    C1239  O7079     0.54169      .   S
    C1285  O7079     0.54169      .   S
    C1239  O7080     0.69792      .   S
    C1238  O7080     0.69792      .   S
    C1499  O7081     0.54169      .   S
    C1545  O7081     0.54169      .   S
    C1499  O7082     0.69792      .   S
    C1498  O7082     0.69792      .   S
    C1889  O7083     0.54169      .   S
    C1935  O7083     0.54169      .   S
    C1889  O7084     0.69792      .   S
    C1888  O7084     0.69792      .   S
    C2084  O7085     0.54169      .   S
    C2130  O7085     0.54169      .   S
    C2084  O7086     0.69792      .   S
    C2083  O7086     0.69792      .   S
    C1694  O7087     0.54169      .   S
    C1740  O7087     0.54169      .   S
    C1694  O7088     0.69792      .   S
    C1693  O7088     0.69792      .   S
    C3382  O7089     0.70302      .   S
    C1693  O7089     0.70302      .   S
    C3382  O7090     0.74058      .   S
    C3381  O7090     0.74058      .   S
    C3392  O7091     0.70302      .   S
    C978   O7091     0.70302      .   S
    C3392  O7092     0.74058      .   S
    C3391  O7092     0.74058      .   S
    C3422  O7093     0.70302      .   S
    C2083  O7093     0.70302      .   S
    C3422  O7094     0.74058      .   S
    C3421  O7094     0.74058      .   S
    C3432  O7095     0.70302      .   S
    C1238  O7095     0.70302      .   S
    C3432  O7096     0.74058      .   S
    C3431  O7096     0.74058      .   S
    C3462  O7097     0.70302      .   S
    C1888  O7097     0.70302      .   S
    C3462  O7098     0.74058      .   S
    C3461  O7098     0.74058      .   S
    C3472  O7099     0.70302      .   S
    C1498  O7099     0.70302      .   S
    C3472  O7100     0.74058      .   S
    C3471  O7100     0.74058      .   S
    C95    O7101     0.70428      .   S
    C93    O7101     0.70428      .   S
    C420   O7102     0.70430      .   S
    C418   O7102     0.70430      .   S
    C745   O7103     0.70439      .   S
    C743   O7103     0.70439      .   S
    C2630  O7104     0.70430      .   S
    C2628  O7104     0.70430      .   S
    C2890  O7105     0.70439      .   S
    C2888  O7105     0.70439      .   S
    C2370  O7106     0.70428      .   S
    C2368  O7106     0.70428      .   S
    C1462  O7107     0.93586      .   S
    C1431  O7107     0.93586      .   S
    C1462  O7108     0.63450      .   S
    C3461  O7108     0.63450      .   S
    C942   O7109     0.93603      .   S
    C911   O7109     0.93603      .   S
    C942   O7110     0.63450      .   S
    C3381  O7110     0.63450      .   S
    C1787  O7111     0.93603      .   S
    C1756  O7111     0.93603      .   S
    C1787  O7112     0.63450      .   S
    C3391  O7112     0.63450      .   S
    C1852  O7113     0.93573      .   S
    C1821  O7113     0.93573      .   S
    C1852  O7114     0.63450      .   S
    C3471  O7114     0.63450      .   S
    C1202  O7115     0.93573      .   S
    C1171  O7115     0.93573      .   S
    C1202  O7116     0.63450      .   S
    C3421  O7116     0.63450      .   S
    C2177  O7117     0.93586      .   S
    C2146  O7117     0.93586      .   S
    C2177  O7118     0.63450      .   S
    C3431  O7118     0.63450      .   S
    C1298  O7119     0.54156      .   S
    C1264  O7119     0.54156      .   S
    C1753  O7120     0.54156      .   S
    C1719  O7120     0.54156      .   S
    C1948  O7121     0.54156      .   S
    C1914  O7121     0.54156      .   S
    C1038  O7122     0.54156      .   S
    C1004  O7122     0.54156      .   S
    C1558  O7123     0.54177      .   S
    C1524  O7123     0.54177      .   S
    C2143  O7124     0.54177      .   S
    C2109  O7124     0.54177      .   S
    C2379  O7125     0.63651      .   S
    C2354  O7125     0.63651      .   S
    C2379  O7126     0.94412      .   S
    C3186  O7126     0.94412      .   S
    C104   O7127     0.63651      .   S
    C79    O7127     0.63651      .   S
    C104   O7128     0.94412      .   S
    C3146  O7128     0.94412      .   S
    C2639  O7129     0.63620      .   S
    C2614  O7129     0.63620      .   S
    C2639  O7130     0.94435      .   S
    C3176  O7130     0.94435      .   S
    C429   O7131     0.63620      .   S
    C404   O7131     0.63620      .   S
    C429   O7132     0.94435      .   S
    C3156  O7132     0.94435      .   S
    C754   O7133     0.63638      .   S
    C729   O7133     0.63638      .   S
    C754   O7134     0.94416      .   S
    C3166  O7134     0.94416      .   S
    C2899  O7135     0.63638      .   S
    C2874  O7135     0.63638      .   S
    C2899  O7136     0.94416      .   S
    C3174  O7136     0.94416      .   S
    C1559  O7137     0.54163      .   S
    C1525  O7137     0.54163      .   S
    C1039  O7138     0.54169      .   S
    C1005  O7138     0.54169      .   S
    C1949  O7139     0.54144      .   S
    C1915  O7139     0.54144      .   S
    C1299  O7140     0.54144      .   S
    C1265  O7140     0.54144      .   S
    C2144  O7141     0.54163      .   S
    C2110  O7141     0.54163      .   S
    C1754  O7142     0.54169      .   S
    C1720  O7142     0.54169      .   S
    C404   O7143     0.63747      .   S
    C428   O7143     0.63747      .   S
    C729   O7144     0.63747      .   S
    C753   O7144     0.63747      .   S
    C2614  O7145     0.63747      .   S
    C2638  O7145     0.63747      .   S
    C2354  O7146     0.63747      .   S
    C2378  O7146     0.63747      .   S
    C79    O7147     0.63747      .   S
    C103   O7147     0.63747      .   S
    C2874  O7148     0.63747      .   S
    C2898  O7148     0.63747      .   S
    C1498  O7149     0.54148      .   S
    C1544  O7149     0.54148      .   S
    C1693  O7150     0.54147      .   S
    C1739  O7150     0.54147      .   S
    C1888  O7151     0.54153      .   S
    C1934  O7151     0.54153      .   S
    C1238  O7152     0.54153      .   S
    C1284  O7152     0.54153      .   S
    C978   O7153     0.54147      .   S
    C1024  O7153     0.54147      .   S
    C2083  O7154     0.54148      .   S
    C2129  O7154     0.54148      .   S
    C1530  O7155     0.93604      .   S
    C3470  O7155     0.93604      .   S
    C1920  O7156     0.93611      .   S
    C3460  O7156     0.93611      .   S
    C2115  O7157     0.93604      .   S
    C3420  O7157     0.93604      .   S
    C1725  O7158     0.93603      .   S
    C3380  O7158     0.93603      .   S
    C1010  O7159     0.93603      .   S
    C3390  O7159     0.93603      .   S
    C1270  O7160     0.93611      .   S
    C3430  O7160     0.93611      .   S
    C1171  O7161     0.93653      .   S
    C1215  O7161     0.93653      .   S
    C1171  O7162     0.94495      .   S
    C1212  O7162     0.94495      .   S
    C1171  O7163     0.96297      .   S
    C3429  O7163     0.96297      .   S
    C1821  O7164     0.93653      .   S
    C1865  O7164     0.93653      .   S
    C1821  O7165     0.94495      .   S
    C1862  O7165     0.94495      .   S
    C1821  O7166     0.96297      .   S
    C3479  O7166     0.96297      .   S
    C1756  O7167     0.93592      .   S
    C1800  O7167     0.93592      .   S
    C1756  O7168     0.94495      .   S
    C1797  O7168     0.94495      .   S
    C1756  O7169     0.96303      .   S
    C3399  O7169     0.96303      .   S
    C1431  O7170     0.93629      .   S
    C1475  O7170     0.93629      .   S
    C1431  O7171     0.94495      .   S
    C1472  O7171     0.94495      .   S
    C1431  O7172     0.96266      .   S
    C3469  O7172     0.96266      .   S
    C911   O7173     0.93592      .   S
    C955   O7173     0.93592      .   S
    C911   O7174     0.94495      .   S
    C952   O7174     0.94495      .   S
    C911   O7175     0.96303      .   S
    C3389  O7175     0.96303      .   S
    C2146  O7176     0.93629      .   S
    C2190  O7176     0.93629      .   S
    C2146  O7177     0.94495      .   S
    C2187  O7177     0.94495      .   S
    C2146  O7178     0.96266      .   S
    C3439  O7178     0.96266      .   S
    C3391  O7179     0.63450      .   S
    C1007  O7179     0.63450      .   S
    C3421  O7180     0.63450      .   S
    C2112  O7180     0.63450      .   S
    C3381  O7181     0.63450      .   S
    C1722  O7181     0.63450      .   S
    C3431  O7182     0.63450      .   S
    C1267  O7182     0.63450      .   S
    C3461  O7183     0.63450      .   S
    C1917  O7183     0.63450      .   S
    C3471  O7184     0.63450      .   S
    C1527  O7184     0.63450      .   S
    C1719  O7185     0.69514      .   S
    C1720  O7185     0.69514      .   S
    C1719  O7186     0.70031      .   S
    C1715  O7186     0.70031      .   S
    C1524  O7187     0.69514      .   S
    C1525  O7187     0.69514      .   S
    C1524  O7188     0.70038      .   S
    C1520  O7188     0.70038      .   S
    C1914  O7189     0.69514      .   S
    C1915  O7189     0.69514      .   S
    C1914  O7190     0.70057      .   S
    C1910  O7190     0.70057      .   S
    C2109  O7191     0.69514      .   S
    C2110  O7191     0.69514      .   S
    C2109  O7192     0.70038      .   S
    C2105  O7192     0.70038      .   S
    C1004  O7193     0.69514      .   S
    C1005  O7193     0.69514      .   S
    C1004  O7194     0.70031      .   S
    C1000  O7194     0.70031      .   S
    C1264  O7195     0.69514      .   S
    C1265  O7195     0.69514      .   S
    C1264  O7196     0.70057      .   S
    C1260  O7196     0.70057      .   S
    C955   O7197     0.63519      .   S
    C1714  O7197     0.63519      .   S
    C1475  O7198     0.63522      .   S
    C1909  O7198     0.63522      .   S
    C1215  O7199     0.63497      .   S
    C2104  O7199     0.63497      .   S
    C1800  O7200     0.63519      .   S
    C999   O7200     0.63519      .   S
    C2190  O7201     0.63522      .   S
    C1259  O7201     0.63522      .   S
    C1865  O7202     0.63497      .   S
    C1519  O7202     0.63497      .   S
    C2110  O7203     0.70409      .   S
    C2108  O7203     0.70409      .   S
    C1525  O7204     0.70409      .   S
    C1523  O7204     0.70409      .   S
    C1720  O7205     0.70430      .   S
    C1718  O7205     0.70430      .   S
    C1005  O7206     0.70430      .   S
    C1003  O7206     0.70430      .   S
    C1915  O7207     0.70428      .   S
    C1913  O7207     0.70428      .   S
    C1265  O7208     0.70428      .   S
    C1263  O7208     0.70428      .   S
    C738   O7209     0.54140      .   S
    C776   O7209     0.54140      .   S
    C738   O7210     0.70119      .   S
    C741   O7210     0.70119      .   S
    C88    O7211     0.54140      .   S
    C126   O7211     0.54140      .   S
    C88    O7212     0.70119      .   S
    C91    O7212     0.70119      .   S
    C2883  O7213     0.54140      .   S
    C2921  O7213     0.54140      .   S
    C2883  O7214     0.70119      .   S
    C2886  O7214     0.70119      .   S
    C413   O7215     0.54165      .   S
    C451   O7215     0.54165      .   S
    C413   O7216     0.70119      .   S
    C416   O7216     0.70119      .   S
    C2623  O7217     0.54165      .   S
    C2661  O7217     0.54165      .   S
    C2623  O7218     0.70119      .   S
    C2626  O7218     0.70119      .   S
    C2363  O7219     0.54140      .   S
    C2401  O7219     0.54140      .   S
    C2363  O7220     0.70119      .   S
    C2366  O7220     0.70119      .   S
    C2888  O7221     0.70213      .   S
    C2886  O7221     0.70213      .   S
    C2888  O7222     0.74077      .   S
    C1197  O7222     0.74077      .   S
    C743   O7223     0.70213      .   S
    C741   O7223     0.70213      .   S
    C743   O7224     0.74077      .   S
    C1847  O7224     0.74077      .   S
    C418   O7225     0.70213      .   S
    C416   O7225     0.70213      .   S
    C418   O7226     0.74091      .   S
    C1782  O7226     0.74091      .   S
    C2368  O7227     0.70213      .   S
    C2366  O7227     0.70213      .   S
    C2368  O7228     0.74063      .   S
    C1457  O7228     0.74063      .   S
    C2628  O7229     0.70213      .   S
    C2626  O7229     0.70213      .   S
    C2628  O7230     0.74091      .   S
    C937   O7230     0.74091      .   S
    C93    O7231     0.70213      .   S
    C91    O7231     0.70213      .   S
    C93    O7232     0.74063      .   S
    C2172  O7232     0.74063      .   S
    C2907  O7233     0.92426      .   S
    C3174  O7233     0.92426      .   S
    C2907  O7234     0.63139      .   S
    C1782  O7234     0.63139      .   S
    C2647  O7235     0.92444      .   S
    C3176  O7235     0.92444      .   S
    C2647  O7236     0.63139      .   S
    C1847  O7236     0.63139      .   S
    C2387  O7237     0.92457      .   S
    C3186  O7237     0.92457      .   S
    C2387  O7238     0.63139      .   S
    C2172  O7238     0.63139      .   S
    C112   O7239     0.92457      .   S
    C3146  O7239     0.92457      .   S
    C112   O7240     0.63139      .   S
    C1457  O7240     0.63139      .   S
    C762   O7241     0.92426      .   S
    C3166  O7241     0.92426      .   S
    C762   O7242     0.63139      .   S
    C937   O7242     0.63139      .   S
    C437   O7243     0.92444      .   S
    C3156  O7243     0.92444      .   S
    C437   O7244     0.63139      .   S
    C1197  O7244     0.63139      .   S
    C1519  O7245     0.73985      .   S
    C1520  O7245     0.73985  1_545   S
    C1519  O7246     0.63319      .   S
    C1539  O7246     0.63319      .   S
    C999   O7247     0.73985      .   S
    C1000  O7247     0.73985      .   S
    C999   O7248     0.63314      .   S
    C1019  O7248     0.63314      .   S
    C2104  O7249     0.73985      .   S
    C2105  O7249     0.73985  1_455   S
    C2104  O7250     0.63319      .   S
    C2124  O7250     0.63319      .   S
    C1909  O7251     0.73985      .   S
    C1910  O7251     0.73985  1_545   S
    C1909  O7252     0.63341      .   S
    C1929  O7252     0.63341      .   S
    C1259  O7253     0.73985      .   S
    C1260  O7253     0.73985  1_455   S
    C1259  O7254     0.63341      .   S
    C1279  O7254     0.63341      .   S
    C1714  O7255     0.73985      .   S
    C1715  O7255     0.73985      .   S
    C1714  O7256     0.63314      .   S
    C1734  O7256     0.63314      .   S
    C1879  O7257     0.54130      .   S
    C1841  O7257     0.54130      .   S
    C1229  O7258     0.54130      .   S
    C1191  O7258     0.54130      .   S
    C2204  O7259     0.54130      .   S
    C2166  O7259     0.54130      .   S
    C1489  O7260     0.54130      .   S
    C1451  O7260     0.54130      .   S
    C969   O7261     0.54130      .   S
    C931   O7261     0.54130      .   S
    C1814  O7262     0.54130      .   S
    C1776  O7262     0.54130      .   S
    C3176  O7263     0.92446      .   S
    C1867  O7263     0.92446      .   S
    C3176  O7264     0.94437      .   S
    C1859  O7264     0.94437      .   S
    C3176  O7265     0.96051      .   S
    C3177  O7265     0.96051      .   S
    C3146  O7266     0.92457      .   S
    C1477  O7266     0.92457      .   S
    C3146  O7267     0.94412      .   S
    C1469  O7267     0.94412      .   S
    C3146  O7268     0.96051      .   S
    C3147  O7268     0.96051      .   S
    C3156  O7269     0.92446      .   S
    C1217  O7269     0.92446      .   S
    C3156  O7270     0.94437      .   S
    C1209  O7270     0.94437      .   S
    C3156  O7271     0.96051      .   S
    C3157  O7271     0.96051      .   S
    C3166  O7272     0.92426      .   S
    C957   O7272     0.92426      .   S
    C3166  O7273     0.94416      .   S
    C949   O7273     0.94416      .   S
    C3166  O7274     0.96051      .   S
    C3167  O7274     0.96051      .   S
    C3186  O7275     0.92457      .   S
    C2192  O7275     0.92457      .   S
    C3186  O7276     0.94412      .   S
    C2184  O7276     0.94412      .   S
    C3186  O7277     0.96051      .   S
    C3187  O7277     0.96051      .   S
    C3174  O7278     0.92426      .   S
    C1802  O7278     0.92426      .   S
    C3174  O7279     0.94416      .   S
    C1794  O7279     0.94416      .   S
    C3174  O7280     0.96051      .   S
    C3175  O7280     0.96051      .   S
    C428   O7281     0.95084      .   S
    C390   O7281     0.95084      .   S
    C2378  O7282     0.95084      .   S
    C2340  O7282     0.95084      .   S
    C2638  O7283     0.95084      .   S
    C2600  O7283     0.95084      .   S
    C2898  O7284     0.95084      .   S
    C2860  O7284     0.95084      .   S
    C103   O7285     0.95084      .   S
    C65    O7285     0.95084      .   S
    C753   O7286     0.95084      .   S
    C715   O7286     0.95084      .   S
    C1260  O7287     0.70508      .   S
    C1258  O7287     0.70508      .   S
    C1715  O7288     0.70508      .   S
    C1713  O7288     0.70508      .   S
    C2105  O7289     0.70508      .   S
    C2103  O7289     0.70508      .   S
    C1520  O7290     0.70508      .   S
    C1518  O7290     0.70508      .   S
    C1910  O7291     0.70508      .   S
    C1908  O7291     0.70508      .   S
    C1000  O7292     0.70508      .   S
    C998   O7292     0.70508      .   S
    C1862  O7293     0.63589      .   S
    C3475  O7293     0.63589      .   S
    C2187  O7294     0.63614      .   S
    C3435  O7294     0.63614      .   S
    C1212  O7295     0.63589      .   S
    C3425  O7295     0.63589      .   S
    C1797  O7296     0.63617      .   S
    C3395  O7296     0.63617      .   S
    C952   O7297     0.63617      .   S
    C3385  O7297     0.63617      .   S
    C1472  O7298     0.63614      .   S
    C3465  O7298     0.63614      .   S
    C1867  O7299     0.63139      .   S
    C2627  O7299     0.63139      .   S
    C1217  O7300     0.63139      .   S
    C417   O7300     0.63139      .   S
    C957   O7301     0.63139      .   S
    C742   O7301     0.63139      .   S
    C1802  O7302     0.63139      .   S
    C2887  O7302     0.63139      .   S
    C2192  O7303     0.63139      .   S
    C2367  O7303     0.63139      .   S
    C1477  O7304     0.63139      .   S
    C92    O7304     0.63139      .   S
    C91    O7305     0.54157      .   S
    C127   O7305     0.54157      .   S
    C741   O7306     0.54167      .   S
    C777   O7306     0.54167      .   S
    C416   O7307     0.54157      .   S
    C452   O7307     0.54157      .   S
    C2366  O7308     0.54157      .   S
    C2402  O7308     0.54157      .   S
    C2626  O7309     0.54157      .   S
    C2662  O7309     0.54157      .   S
    C2886  O7310     0.54167      .   S
    C2922  O7310     0.54167      .   S
    C1722  O7311     0.93594      .   S
    C1691  O7311     0.93594      .   S
    C1527  O7312     0.93573      .   S
    C1496  O7312     0.93573      .   S
    C2112  O7313     0.93573      .   S
    C2081  O7313     0.93573      .   S
    C1917  O7314     0.93586      .   S
    C1886  O7314     0.93586      .   S
    C1267  O7315     0.93586      .   S
    C1236  O7315     0.93586      .   S
    C1007  O7316     0.93594      .   S
    C976   O7316     0.93594      .   S
    C1263  O7317     0.74063      .   S
    C2367  O7317     0.74063      .   S
    C1263  O7318     0.70213      .   S
    C1261  O7318     0.70213      .   S
    C1003  O7319     0.74091      .   S
    C2887  O7319     0.74091      .   S
    C1003  O7320     0.70213      .   S
    C1001  O7320     0.70213      .   S
    C1718  O7321     0.74091      .   S
    C742   O7321     0.74091      .   S
    C1718  O7322     0.70213      .   S
    C1716  O7322     0.70213      .   S
    C2108  O7323     0.74064      .   S
    C417   O7323     0.74064      .   S
    C2108  O7324     0.70213      .   S
    C2106  O7324     0.70213      .   S
    C1913  O7325     0.74063      .   S
    C92    O7325     0.74063      .   S
    C1913  O7326     0.70213      .   S
    C1911  O7326     0.70213      .   S
    C1523  O7327     0.74064      .   S
    C2627  O7327     0.74064      .   S
    C1523  O7328     0.70213      .   S
    C1521  O7328     0.70213      .   S
    C1847  O7329     0.63606      .   S
    C1866  O7329     0.63606      .   S
    C937   O7330     0.63612      .   S
    C956   O7330     0.63612      .   S
    C2172  O7331     0.63614      .   S
    C2191  O7331     0.63614      .   S
    C1457  O7332     0.63614      .   S
    C1476  O7332     0.63614      .   S
    C1197  O7333     0.63606      .   S
    C1216  O7333     0.63606      .   S
    C1782  O7334     0.63612      .   S
    C1801  O7334     0.63612      .   S
    C1734  O7335     0.93544      .   S
    C3380  O7335     0.93544      .   S
    C1279  O7336     0.93487      .   S
    C3430  O7336     0.93487      .   S
    C2124  O7337     0.93494      .   S
    C3420  O7337     0.93494      .   S
    C1019  O7338     0.93544      .   S
    C3390  O7338     0.93544      .   S
    C1929  O7339     0.93487      .   S
    C3460  O7339     0.93487      .   S
    C1539  O7340     0.93494      .   S
    C3470  O7340     0.93494      .   S
    C3399  O7341     0.96249      .   S
    C976   O7341     0.96249      .   S
    C3389  O7342     0.96249      .   S
    C1691  O7342     0.96249      .   S
    C3479  O7343     0.96297      .   S
    C1496  O7343     0.96297      .   S
    C3439  O7344     0.96266      .   S
    C1236  O7344     0.96266      .   S
    C3469  O7345     0.96266      .   S
    C1886  O7345     0.96266      .   S
    C3429  O7346     0.96297      .   S
    C2081  O7346     0.96297      .   S
    C967   O7347     0.54132      .   S
    C929   O7347     0.54132      .   S
    C2202  O7348     0.54143      .   S
    C2164  O7348     0.54143      .   S
    C1877  O7349     0.54131      .   S
    C1839  O7349     0.54131      .   S
    C1227  O7350     0.54131      .   S
    C1189  O7350     0.54131      .   S
    C1487  O7351     0.54143      .   S
    C1449  O7351     0.54143      .   S
    C1812  O7352     0.54132      .   S
    C1774  O7352     0.54132      .   S
    C2367  O7353     0.63614      .   S
    C2386  O7353     0.63614      .   S
    C742   O7354     0.63612      .   S
    C761   O7354     0.63612      .   S
    C92    O7355     0.63614      .   S
    C111   O7355     0.63614      .   S
    C2887  O7356     0.63612      .   S
    C2906  O7356     0.63612      .   S
    C2627  O7357     0.63636      .   S
    C2646  O7357     0.63636      .   S
    C417   O7358     0.63636      .   S
    C436   O7358     0.63636      .   S
    C3420  O7359     0.93604      .   S
    C1205  O7359     0.93604      .   S
    C3420  O7360     0.93494      .   S
    C1214  O7360     0.93494      .   S
    C3470  O7361     0.93604      .   S
    C1855  O7361     0.93604      .   S
    C3470  O7362     0.93494      .   S
    C1864  O7362     0.93494      .   S
    C3460  O7363     0.93611      .   S
    C1465  O7363     0.93611      .   S
    C3460  O7364     0.93487      .   S
    C1474  O7364     0.93487      .   S
    C3380  O7365     0.93581      .   S
    C945   O7365     0.93581      .   S
    C3380  O7366     0.93501      .   S
    C954   O7366     0.93501      .   S
    C3390  O7367     0.93581      .   S
    C1790  O7367     0.93581      .   S
    C3390  O7368     0.93501      .   S
    C1799  O7368     0.93501      .   S
    C3430  O7369     0.93611      .   S
    C2180  O7369     0.93611      .   S
    C3430  O7370     0.93487      .   S
    C2189  O7370     0.93487      .   S
    C1490  O7371     0.54154      .   S
    C1452  O7371     0.54154      .   S
    C970   O7372     0.54154      .   S
    C932   O7372     0.54154      .   S
    C1815  O7373     0.54154      .   S
    C1777  O7373     0.54154      .   S
    C2205  O7374     0.54154      .   S
    C2167  O7374     0.54154      .   S
    C1230  O7375     0.54154      .   S
    C1192  O7375     0.54154      .   S
    C1880  O7376     0.54154      .   S
    C1842  O7376     0.54154      .   S
    C1451  O7377     0.70347      .   S
    C1452  O7377     0.70347      .   S
    C1451  O7378     0.70434      .   S
    C3466  O7378     0.70434      .   S
    C2166  O7379     0.70347      .   S
    C2167  O7379     0.70347      .   S
    C2166  O7380     0.70434      .   S
    C3436  O7380     0.70434      .   S
    C1191  O7381     0.70347      .   S
    C1192  O7381     0.70347      .   S
    C1191  O7382     0.70448      .   S
    C3426  O7382     0.70448      .   S
    C1841  O7383     0.70347      .   S
    C1842  O7383     0.70347      .   S
    C1841  O7384     0.70448      .   S
    C3476  O7384     0.70448      .   S
    C931   O7385     0.70347      .   S
    C932   O7385     0.70347      .   S
    C931   O7386     0.70461      .   S
    C3386  O7386     0.70461      .   S
    C1776  O7387     0.70347      .   S
    C1777  O7387     0.70347      .   S
    C1776  O7388     0.70461      .   S
    C3396  O7388     0.70461      .   S
    C2103  O7389     0.70119      .   S
    C2106  O7389     0.70119      .   S
    C2103  O7390     0.54159      .   S
    C2141  O7390     0.54159  1_655   S
    C1518  O7391     0.70119      .   S
    C1521  O7391     0.70119      .   S
    C1518  O7392     0.54159      .   S
    C1556  O7392     0.54159  1_565   S
    C1713  O7393     0.70119      .   S
    C1716  O7393     0.70119      .   S
    C1713  O7394     0.54165      .   S
    C1751  O7394     0.54165      .   S
    C1258  O7395     0.70119      .   S
    C1261  O7395     0.70119      .   S
    C1258  O7396     0.54140      .   S
    C1296  O7396     0.54140  1_655   S
    C998   O7397     0.70119      .   S
    C1001  O7397     0.70119      .   S
    C998   O7398     0.54165      .   S
    C1036  O7398     0.54165      .   S
    C1908  O7399     0.70119      .   S
    C1911  O7399     0.70119      .   S
    C1908  O7400     0.54140      .   S
    C1946  O7400     0.54140  1_565   S
    C1741  O7401     0.54129      .   S
    C1695  O7401     0.54129      .   S
    C1286  O7402     0.54129      .   S
    C1240  O7402     0.54129      .   S
    C1936  O7403     0.54129      .   S
    C1890  O7403     0.54129      .   S
    C1026  O7404     0.54129      .   S
    C980   O7404     0.54129      .   S
    C1546  O7405     0.54129      .   S
    C1500  O7405     0.54129      .   S
    C2131  O7406     0.54129      .   S
    C2085  O7406     0.54129      .   S
    C1209  O7407     0.63638      .   S
    C1184  O7407     0.63638      .   S
    C2184  O7408     0.63651      .   S
    C2159  O7408     0.63651      .   S
    C1859  O7409     0.63638      .   S
    C1834  O7409     0.63638      .   S
    C1469  O7410     0.63651      .   S
    C1444  O7410     0.63651      .   S
    C949   O7411     0.63638      .   S
    C924   O7411     0.63638      .   S
    C1794  O7412     0.63638      .   S
    C1769  O7412     0.63638      .   S
    C1790  O7413     0.63418      .   S
    C981   O7413     0.63418      .   S
    C1855  O7414     0.63388      .   S
    C1501  O7414     0.63388      .   S
    C2180  O7415     0.63404      .   S
    C1241  O7415     0.63404      .   S
    C1205  O7416     0.63388      .   S
    C2086  O7416     0.63388      .   S
    C945   O7417     0.63418      .   S
    C1696  O7417     0.63418      .   S
    C1465  O7418     0.63404      .   S
    C1891  O7418     0.63404      .   S
    C1911  O7419     0.54157      .   S
    C1947  O7419     0.54157      .   S
    C2106  O7420     0.54137      .   S
    C2142  O7420     0.54137      .   S
    C1521  O7421     0.54137      .   S
    C1557  O7421     0.54137      .   S
    C1716  O7422     0.54157      .   S
    C1752  O7422     0.54157      .   S
    C1001  O7423     0.54157      .   S
    C1037  O7423     0.54157      .   S
    C1261  O7424     0.54157      .   S
    C1297  O7424     0.54157      .   S
    C1878  O7425     0.54145      .   S
    C1840  O7425     0.54145      .   S
    C968   O7426     0.54121      .   S
    C930   O7426     0.54121      .   S
    C2203  O7427     0.54132      .   S
    C2165  O7427     0.54132      .   S
    C1488  O7428     0.54132      .   S
    C1450  O7428     0.54132      .   S
    C1813  O7429     0.54121      .   S
    C1775  O7429     0.54121      .   S
    C1228  O7430     0.54145      .   S
    C1190  O7430     0.54145      .   S
    C3475  O7431     0.75176      .   S
    C3476  O7431     0.75176      .   S
    C3475  O7432     0.63589      .   S
    C1537  O7432     0.63589      .   S
    C3465  O7433     0.75176      .   S
    C3466  O7433     0.75176      .   S
    C3465  O7434     0.63614      .   S
    C1927  O7434     0.63614      .   S
    C3435  O7435     0.75176      .   S
    C3436  O7435     0.75176      .   S
    C3435  O7436     0.63614      .   S
    C1277  O7436     0.63614      .   S
    C3385  O7437     0.75176      .   S
    C3386  O7437     0.75176      .   S
    C3385  O7438     0.63562      .   S
    C1732  O7438     0.63562      .   S
    C3425  O7439     0.75176      .   S
    C3426  O7439     0.75176      .   S
    C3425  O7440     0.63589      .   S
    C2122  O7440     0.63589      .   S
    C3395  O7441     0.75176      .   S
    C3396  O7441     0.75176      .   S
    C3395  O7442     0.63562      .   S
    C1017  O7442     0.63562      .   S
    C1695  O7443     0.69909      .   S
    C1240  O7443     0.69909      .   S
    C1695  O7444     0.70348      .   S
    C1697  O7444     0.70348      .   S
    C1500  O7445     0.69909      .   S
    C2085  O7445     0.69909      .   S
    C1500  O7446     0.70363      .   S
    C1502  O7446     0.70363      .   S
    C980   O7447     0.69909      .   S
    C1890  O7447     0.69909      .   S
    C980   O7448     0.70348      .   S
    C982   O7448     0.70348      .   S
    C2085  O7449     0.70363      .   S
    C2087  O7449     0.70363      .   S
    C1240  O7450     0.70332      .   S
    C1242  O7450     0.70332      .   S
    C1890  O7451     0.70332      .   S
    C1892  O7451     0.70332      .   S
    C2386  O7452     0.94636      .   S
    C2340  O7452     0.94636      .   S
    C436   O7453     0.94636      .   S
    C390   O7453     0.94636      .   S
    C761   O7454     0.94636      .   S
    C715   O7454     0.94636      .   S
    C111   O7455     0.94636      .   S
    C65    O7455     0.94636      .   S
    C2646  O7456     0.94636      .   S
    C2600  O7456     0.94636      .   S
    C2906  O7457     0.94636      .   S
    C2860  O7457     0.94636      .   S
    C1777  O7458     0.70659      .   S
    C3398  O7458     0.70659      .   S
    C1842  O7459     0.70659      .   S
    C3478  O7459     0.70659      .   S
    C1192  O7460     0.70659      .   S
    C3428  O7460     0.70659      .   S
    C2167  O7461     0.70659      .   S
    C3438  O7461     0.70659      .   S
    C1452  O7462     0.70659      .   S
    C3468  O7462     0.70659      .   S
    C932   O7463     0.70659      .   S
    C3388  O7463     0.70659      .   S
    C981   O7464     0.74565      .   S
    C982   O7464     0.74565      .   S
    C981   O7465     0.63536      .   S
    C1009  O7465     0.63536      .   S
    C2086  O7466     0.74597      .   S
    C2087  O7466     0.74597      .   S
    C2086  O7467     0.63551      .   S
    C2114  O7467     0.63551      .   S
    C1696  O7468     0.74565      .   S
    C1697  O7468     0.74565      .   S
    C1696  O7469     0.63536      .   S
    C1724  O7469     0.63536      .   S
    C1891  O7470     0.74628      .   S
    C1892  O7470     0.74628      .   S
    C1891  O7471     0.63520      .   S
    C1919  O7471     0.63520      .   S
    C1501  O7472     0.74597      .   S
    C1502  O7472     0.74597      .   S
    C1501  O7473     0.63551      .   S
    C1529  O7473     0.63551      .   S
    C1241  O7474     0.74628      .   S
    C1242  O7474     0.74628      .   S
    C1241  O7475     0.63520      .   S
    C1269  O7475     0.63520      .   S
    C1892  O7476     0.70425      .   S
    C1893  O7476     0.70425      .   S
    C1697  O7477     0.70441      .   S
    C1698  O7477     0.70441      .   S
    C1502  O7478     0.70411      .   S
    C1503  O7478     0.70411      .   S
    C982   O7479     0.70441      .   S
    C983   O7479     0.70441      .   S
    C2087  O7480     0.70411      .   S
    C2088  O7480     0.70411      .   S
    C1242  O7481     0.70425      .   S
    C1243  O7481     0.70425      .   S
    C1774  O7482     0.70324      .   S
    C1775  O7482     0.70324      .   S
    C1774  O7483     0.70517      .   S
    C1770  O7483     0.70517      .   S
    C1449  O7484     0.70324      .   S
    C1450  O7484     0.70324      .   S
    C1449  O7485     0.70517      .   S
    C1445  O7485     0.70517      .   S
    C929   O7486     0.70324      .   S
    C930   O7486     0.70324      .   S
    C929   O7487     0.70517      .   S
    C925   O7487     0.70517      .   S
    C1189  O7488     0.70324      .   S
    C1190  O7488     0.70324      .   S
    C1189  O7489     0.70517      .   S
    C1185  O7489     0.70517      .   S
    C2164  O7490     0.70324      .   S
    C2165  O7490     0.70324      .   S
    C2164  O7491     0.70517      .   S
    C2160  O7491     0.70517      .   S
    C1839  O7492     0.70324      .   S
    C1840  O7492     0.70324      .   S
    C1839  O7493     0.70517      .   S
    C1835  O7493     0.70517      .   S
    C3157  O7494     0.96649      .   S
    C390   O7494     0.96649      .   S
    C3187  O7495     0.96649      .   S
    C2145  O7495     0.96649      .   S
    C3177  O7496     0.96649      .   S
    C2600  O7496     0.96649      .   S
    C3175  O7497     0.96649      .   S
    C2860  O7497     0.96649      .   S
    C3167  O7498     0.96649      .   S
    C715   O7498     0.96649      .   S
    C3147  O7499     0.96649      .   S
    C1430  O7499     0.96649      .   S
    C1866  O7500     0.94636      .   S
    C1820  O7500     0.94636      .   S
    C1476  O7501     0.94636      .   S
    C1430  O7501     0.94636      .   S
    C956   O7502     0.94636      .   S
    C910   O7502     0.94636      .   S
    C2191  O7503     0.94636      .   S
    C2145  O7503     0.94636      .   S
    C1801  O7504     0.94636      .   S
    C1755  O7504     0.94636      .   S
    C1216  O7505     0.94636      .   S
    C1170  O7505     0.94636      .   S
    C3426  O7506     0.70448      .   S
    C2101  O7506     0.70448      .   S
    C3436  O7507     0.70434      .   S
    C1256  O7507     0.70434      .   S
    C3466  O7508     0.70434      .   S
    C1906  O7508     0.70434      .   S
    C3476  O7509     0.70448      .   S
    C1516  O7509     0.70448      .   S
    C3396  O7510     0.70434      .   S
    C996   O7510     0.70434      .   S
    C3386  O7511     0.70434      .   S
    C1711  O7511     0.70434      .   S
    C1236  O7512     0.94334      .   S
    C1269  O7512     0.94334      .   S
    C1236  O7513     0.94495      .   S
    C1277  O7513     0.94495      .   S
    C1236  O7514     0.93629      .   S
    C1280  O7514     0.93629      .   S
    C976   O7515     0.94364      .   S
    C1009  O7515     0.94364      .   S
    C976   O7516     0.94495      .   S
    C1017  O7516     0.94495      .   S
    C976   O7517     0.93616      .   S
    C1020  O7517     0.93616      .   S
    C1691  O7518     0.94364      .   S
    C1724  O7518     0.94364      .   S
    C1691  O7519     0.94495      .   S
    C1732  O7519     0.94495      .   S
    C1691  O7520     0.93616      .   S
    C1735  O7520     0.93616      .   S
    C1496  O7521     0.94357      .   S
    C1529  O7521     0.94357      .   S
    C1496  O7522     0.94495      .   S
    C1537  O7522     0.94495      .   S
    C1496  O7523     0.93653      .   S
    C1540  O7523     0.93653      .   S
    C2081  O7524     0.94357      .   S
    C2114  O7524     0.94357      .   S
    C2081  O7525     0.94495      .   S
    C2122  O7525     0.94495      .   S
    C2081  O7526     0.93653      .   S
    C2125  O7526     0.93653      .   S
    C1886  O7527     0.94334      .   S
    C1919  O7527     0.94334      .   S
    C1886  O7528     0.94495      .   S
    C1927  O7528     0.94495      .   S
    C1886  O7529     0.93629      .   S
    C1930  O7529     0.93629      .   S
    C2860  O7530     0.94705      .   S
    C2896  O7530     0.94705      .   S
    C2860  O7531     0.94964      .   S
    C2897  O7531     0.94964      .   S
    C715   O7532     0.94705      .   S
    C751   O7532     0.94705      .   S
    C715   O7533     0.94964      .   S
    C752   O7533     0.94964      .   S
    C65    O7534     0.94705      .   S
    C101   O7534     0.94705      .   S
    C65    O7535     0.94970      .   S
    C102   O7535     0.94970      .   S
    C390   O7536     0.94705      .   S
    C426   O7536     0.94705      .   S
    C390   O7537     0.94974      .   S
    C427   O7537     0.94974      .   S
    C2340  O7538     0.94705      .   S
    C2376  O7538     0.94705      .   S
    C2340  O7539     0.94970      .   S
    C2377  O7539     0.94970      .   S
    C2600  O7540     0.94705      .   S
    C2636  O7540     0.94705      .   S
    C2600  O7541     0.94974      .   S
    C2637  O7541     0.94974      .   S
    C1243  O7542     0.70255      .   S
    C1698  O7542     0.70255      .   S
    C1243  O7543     0.54131      .   S
    C1287  O7543     0.54131      .   S
    C1698  O7544     0.54131      .   S
    C1742  O7544     0.54131      .   S
    C1503  O7545     0.70255      .   S
    C2088  O7545     0.70255      .   S
    C1503  O7546     0.54131      .   S
    C1547  O7546     0.54131      .   S
    C2088  O7547     0.54131      .   S
    C2132  O7547     0.54131      .   S
    C1893  O7548     0.70255      .   S
    C983   O7548     0.70255      .   S
    C1893  O7549     0.54131      .   S
    C1937  O7549     0.54131      .   S
    C983   O7550     0.54131      .   S
    C1027  O7550     0.54131      .   S
    C1190  O7551     0.70505      .   S
    C1188  O7551     0.70505      .   S
    C1450  O7552     0.70505      .   S
    C1448  O7552     0.70505      .   S
    C1840  O7553     0.70505      .   S
    C1838  O7553     0.70505      .   S
    C2165  O7554     0.70505      .   S
    C2163  O7554     0.70505      .   S
    C1775  O7555     0.70505      .   S
    C1773  O7555     0.70505      .   S
    C930   O7556     0.70505      .   S
    C928   O7556     0.70505      .   S
    C1834  O7557     0.75436      .   S
    C1835  O7557     0.75436      .   S
    C1834  O7558     0.63747      .   S
    C1858  O7558     0.63747      .   S
    C1184  O7559     0.75436      .   S
    C1185  O7559     0.75436      .   S
    C1184  O7560     0.63747      .   S
    C1208  O7560     0.63747      .   S
    C1769  O7561     0.75436      .   S
    C1770  O7561     0.75436      .   S
    C1769  O7562     0.63747      .   S
    C1793  O7562     0.63747      .   S
    C924   O7563     0.75436      .   S
    C925   O7563     0.75436      .   S
    C924   O7564     0.63747      .   S
    C948   O7564     0.63747      .   S
    C1444  O7565     0.75436      .   S
    C1445  O7565     0.75436      .   S
    C1444  O7566     0.63747      .   S
    C1468  O7566     0.63747      .   S
    C2159  O7567     0.75436      .   S
    C2160  O7567     0.75436      .   S
    C2159  O7568     0.63747      .   S
    C2183  O7568     0.63747      .   S
    C118   O7569     0.54166      .   S
    C74    O7569     0.54166      .   S
    C2653  O7570     0.54151      .   S
    C2609  O7570     0.54151      .   S
    C2913  O7571     0.54136      .   S
    C2869  O7571     0.54136      .   S
    C2393  O7572     0.54166      .   S
    C2349  O7572     0.54166      .   S
    C443   O7573     0.54151      .   S
    C399   O7573     0.54151      .   S
    C768   O7574     0.54136      .   S
    C724   O7574     0.54136      .   S
    C751   O7575     0.63699      .   S
    C725   O7575     0.63699      .   S
    C2376  O7576     0.63699      .   S
    C2350  O7576     0.63699      .   S
    C426   O7577     0.63699      .   S
    C400   O7577     0.63699      .   S
    C101   O7578     0.63699      .   S
    C75    O7578     0.63699      .   S
    C2896  O7579     0.63699      .   S
    C2870  O7579     0.63699      .   S
    C2636  O7580     0.63699      .   S
    C2610  O7580     0.63699      .   S
    C1473  O7581     0.94522  1_565   S
    C3238  O7581     0.94522      .   S
    C1473  O7582     0.63651      .   S
    C3467  O7582     0.63651      .   S
    C1863  O7583     0.94522  1_565   S
    C3238  O7583     0.94522      .   S
    C1863  O7584     0.63651      .   S
    C3477  O7584     0.63651      .   S
    C1798  O7585     0.94522      .   S
    C3230  O7585     0.94522      .   S
    C1798  O7586     0.63651      .   S
    C3397  O7586     0.63651      .   S
    C953   O7587     0.94522      .   S
    C3230  O7587     0.94522      .   S
    C953   O7588     0.63651      .   S
    C3387  O7588     0.63651      .   S
    C1213  O7589     0.94522  1_655   S
    C3234  O7589     0.94522      .   S
    C1213  O7590     0.63651      .   S
    C3427  O7590     0.63651      .   S
    C2188  O7591     0.94522  1_655   S
    C3234  O7591     0.94522      .   S
    C2188  O7592     0.63651      .   S
    C3437  O7592     0.63651      .   S
    C724   O7593     0.70475      .   S
    C2609  O7593     0.70475      .   S
    C724   O7594     0.70550      .   S
    C726   O7594     0.70550      .   S
    C2349  O7595     0.70475      .   S
    C74    O7595     0.70475      .   S
    C2349  O7596     0.70564      .   S
    C2351  O7596     0.70564      .   S
    C2609  O7597     0.70534      .   S
    C2611  O7597     0.70534      .   S
    C399   O7598     0.70475      .   S
    C2869  O7598     0.70475      .   S
    C399   O7599     0.70534      .   S
    C401   O7599     0.70534      .   S
    C2869  O7600     0.70550      .   S
    C2871  O7600     0.70550      .   S
    C74    O7601     0.70564      .   S
    C76    O7601     0.70564      .   S
    C1770  O7602     0.70555      .   S
    C1768  O7602     0.70555      .   S
    C1185  O7603     0.70558      .   S
    C1183  O7603     0.70558      .   S
    C1445  O7604     0.70544      .   S
    C1443  O7604     0.70544      .   S
    C925   O7605     0.70555      .   S
    C923   O7605     0.70555      .   S
    C1835  O7606     0.70558      .   S
    C1833  O7606     0.70558      .   S
    C2160  O7607     0.70544      .   S
    C2158  O7607     0.70544      .   S
    C1799  O7608     0.63336      .   S
    C1779  O7608     0.63336      .   S
    C1864  O7609     0.63319      .   S
    C1844  O7609     0.63319      .   S
    C954   O7610     0.63336      .   S
    C934   O7610     0.63336      .   S
    C1474  O7611     0.63341      .   S
    C1454  O7611     0.63341      .   S
    C2189  O7612     0.63341      .   S
    C2169  O7612     0.63341      .   S
    C1214  O7613     0.63319      .   S
    C1194  O7613     0.63319      .   S
    C3398  O7614     0.71274      .   S
    C3397  O7614     0.71274      .   S
    C3398  O7615     0.70659      .   S
    C997   O7615     0.70659      .   S
    C3438  O7616     0.71274      .   S
    C3437  O7616     0.71274      .   S
    C3438  O7617     0.70659      .   S
    C1257  O7617     0.70659      .   S
    C3388  O7618     0.71274      .   S
    C3387  O7618     0.71274      .   S
    C3388  O7619     0.70659      .   S
    C1712  O7619     0.70659      .   S
    C3428  O7620     0.71274      .   S
    C3427  O7620     0.71274      .   S
    C3428  O7621     0.70659      .   S
    C2102  O7621     0.70659      .   S
    C3468  O7622     0.71274      .   S
    C3467  O7622     0.71274      .   S
    C3468  O7623     0.70659      .   S
    C1907  O7623     0.70659      .   S
    C3478  O7624     0.71274      .   S
    C3477  O7624     0.71274      .   S
    C3478  O7625     0.70659      .   S
    C1517  O7625     0.70659      .   S
    C3238  O7626     0.94461      .   S
    C1471  O7626     0.94461      .   S
    C3238  O7627     0.94483      .   S
    C1861  O7627     0.94483      .   S
    C3238  O7628     0.96312      .   S
    C3215  O7628     0.96312  1_565   S
    C3234  O7629     0.94483      .   S
    C1211  O7629     0.94483      .   S
    C3234  O7630     0.94461      .   S
    C2186  O7630     0.94461      .   S
    C3234  O7631     0.96312      .   S
    C3211  O7631     0.96312  1_655   S
    C3230  O7632     0.94453      .   S
    C1796  O7632     0.94453      .   S
    C3230  O7633     0.94453      .   S
    C951   O7633     0.94453      .   S
    C3230  O7634     0.96312      .   S
    C3207  O7634     0.96312      .   S
    C1211  O7635     0.63614      .   S
    C1187  O7635     0.63614      .   S
    C1796  O7636     0.63637      .   S
    C1772  O7636     0.63637      .   S
    C2186  O7637     0.63626      .   S
    C2162  O7637     0.63626      .   S
    C1471  O7638     0.63626      .   S
    C1447  O7638     0.63626      .   S
    C951   O7639     0.63637      .   S
    C927   O7639     0.63637      .   S
    C1861  O7640     0.63614      .   S
    C1837  O7640     0.63614      .   S
    C400   O7641     0.75566      .   S
    C401   O7641     0.75566      .   S
    C400   O7642     0.63746      .   S
    C1207  O7642     0.63746      .   S
    C75    O7643     0.75550      .   S
    C76    O7643     0.75550      .   S
    C75    O7644     0.63776      .   S
    C1467  O7644     0.63776      .   S
    C2870  O7645     0.75535      .   S
    C2871  O7645     0.75535      .   S
    C2870  O7646     0.63761      .   S
    C1792  O7646     0.63761      .   S
    C2610  O7647     0.75566      .   S
    C2611  O7647     0.75566      .   S
    C2610  O7648     0.63746      .   S
    C1857  O7648     0.63746      .   S
    C725   O7649     0.75535      .   S
    C726   O7649     0.75535      .   S
    C725   O7650     0.63761      .   S
    C947   O7650     0.63761      .   S
    C2350  O7651     0.75550      .   S
    C2351  O7651     0.75550      .   S
    C2350  O7652     0.63776      .   S
    C2182  O7652     0.63776      .   S
    C2871  O7653     0.70587      .   S
    C2872  O7653     0.70587      .   S
    C2351  O7654     0.70557      .   S
    C2352  O7654     0.70557      .   S
    C726   O7655     0.70587      .   S
    C727   O7655     0.70587      .   S
    C401   O7656     0.70570      .   S
    C402   O7656     0.70570      .   S
    C2611  O7657     0.70570      .   S
    C2612  O7657     0.70570      .   S
    C76    O7658     0.70557      .   S
    C77    O7658     0.70557      .   S
    C1711  O7659     0.70347      .   S
    C1712  O7659     0.70347      .   S
    C1711  O7660     0.54130      .   S
    C1749  O7660     0.54130      .   S
    C2101  O7661     0.70347      .   S
    C2102  O7661     0.70347      .   S
    C2101  O7662     0.54130      .   S
    C2139  O7662     0.54130      .   S
    C1516  O7663     0.70347      .   S
    C1517  O7663     0.70347      .   S
    C1516  O7664     0.54130      .   S
    C1554  O7664     0.54130      .   S
    C1256  O7665     0.70347      .   S
    C1257  O7665     0.70347      .   S
    C1256  O7666     0.54130      .   S
    C1294  O7666     0.54130      .   S
    C996   O7667     0.70347      .   S
    C997   O7667     0.70347      .   S
    C996   O7668     0.54130      .   S
    C1034  O7668     0.54130      .   S
    C1906  O7669     0.70347      .   S
    C1907  O7669     0.70347      .   S
    C1906  O7670     0.54130      .   S
    C1944  O7670     0.54130      .   S
    C1793  O7671     0.95084      .   S
    C1755  O7671     0.95084      .   S
    C948   O7672     0.95084      .   S
    C910   O7672     0.95084      .   S
    C1858  O7673     0.95084      .   S
    C1820  O7673     0.95084      .   S
    C2183  O7674     0.95084      .   S
    C2145  O7674     0.95084      .   S
    C1208  O7675     0.95084      .   S
    C1170  O7675     0.95084      .   S
    C1468  O7676     0.95084      .   S
    C1430  O7676     0.95084      .   S
    C1430  O7677     0.94970      .   S
    C1467  O7677     0.94970      .   S
    C1430  O7678     0.94705      .   S
    C1466  O7678     0.94705      .   S
    C2145  O7679     0.94970      .   S
    C2182  O7679     0.94970      .   S
    C2145  O7680     0.94705      .   S
    C2181  O7680     0.94705      .   S
    C1820  O7681     0.94994      .   S
    C1857  O7681     0.94994      .   S
    C1820  O7682     0.94705      .   S
    C1856  O7682     0.94705      .   S
    C1755  O7683     0.94964      .   S
    C1792  O7683     0.94964      .   S
    C1755  O7684     0.94705      .   S
    C1791  O7684     0.94705      .   S
    C910   O7685     0.94964      .   S
    C947   O7685     0.94964      .   S
    C910   O7686     0.94705      .   S
    C946   O7686     0.94705      .   S
    C1170  O7687     0.94994      .   S
    C1207  O7687     0.94994      .   S
    C1170  O7688     0.94705      .   S
    C1206  O7688     0.94705      .   S
    C3477  O7689     0.63651      .   S
    C1538  O7689     0.63651      .   S
    C3437  O7690     0.63651      .   S
    C1278  O7690     0.63651      .   S
    C3387  O7691     0.63651      .   S
    C1733  O7691     0.63651      .   S
    C3427  O7692     0.63651      .   S
    C2123  O7692     0.63651      .   S
    C3467  O7693     0.63651      .   S
    C1928  O7693     0.63651      .   S
    C3397  O7694     0.63651      .   S
    C1018  O7694     0.63651      .   S
    C1448  O7695     0.75417      .   S
    C1447  O7695     0.75417      .   S
    C1448  O7696     0.70565      .   S
    C1446  O7696     0.70565      .   S
    C928   O7697     0.75417      .   S
    C927   O7697     0.75417      .   S
    C928   O7698     0.70575      .   S
    C926   O7698     0.70575      .   S
    C1188  O7699     0.75417      .   S
    C1187  O7699     0.75417      .   S
    C1188  O7700     0.70551      .   S
    C1186  O7700     0.70551      .   S
    C1838  O7701     0.75417      .   S
    C1837  O7701     0.75417      .   S
    C1838  O7702     0.70551      .   S
    C1836  O7702     0.70551      .   S
    C1773  O7703     0.75417      .   S
    C1772  O7703     0.75417      .   S
    C1773  O7704     0.70575      .   S
    C1771  O7704     0.70575      .   S
    C2163  O7705     0.75417      .   S
    C2162  O7705     0.75417      .   S
    C2163  O7706     0.70565      .   S
    C2161  O7706     0.70565      .   S
    C2125  O7707     0.63497      .   S
    C1194  O7707     0.63497      .   S
    C1540  O7708     0.63497      .   S
    C1844  O7708     0.63497      .   S
    C1020  O7709     0.63525      .   S
    C1779  O7709     0.63525      .   S
    C1280  O7710     0.63522      .   S
    C2169  O7710     0.63522      .   S
    C1930  O7711     0.63522      .   S
    C1454  O7711     0.63522      .   S
    C1735  O7712     0.63525      .   S
    C934   O7712     0.63525      .   S
    C2612  O7713     0.70538      .   S
    C727   O7713     0.70538      .   S
    C2612  O7714     0.54126      .   S
    C2654  O7714     0.54126      .   S
    C77    O7715     0.70538      .   S
    C2352  O7715     0.70538      .   S
    C77    O7716     0.54126      .   S
    C119   O7716     0.54126      .   S
    C727   O7717     0.54126      .   S
    C769   O7717     0.54126      .   S
    C402   O7718     0.70538      .   S
    C2872  O7718     0.70538      .   S
    C402   O7719     0.54126      .   S
    C444   O7719     0.54126      .   S
    C2872  O7720     0.54126      .   S
    C2914  O7720     0.54126      .   S
    C2352  O7721     0.54126      .   S
    C2394  O7721     0.54126      .   S
    C1517  O7722     0.54154      .   S
    C1555  O7722     0.54154      .   S
    C1712  O7723     0.54154      .   S
    C1750  O7723     0.54154      .   S
    C1257  O7724     0.54154      .   S
    C1295  O7724     0.54154      .   S
    C2102  O7725     0.54154      .   S
    C2140  O7725     0.54154      .   S
    C997   O7726     0.54154      .   S
    C1035  O7726     0.54154      .   S
    C1907  O7727     0.54154      .   S
    C1945  O7727     0.54154      .   S
    C427   O7728     0.63754      .   S
    C1180  O7728     0.63754      .   S
    C2377  O7729     0.63776      .   S
    C2155  O7729     0.63776      .   S
    C752   O7730     0.63761      .   S
    C920   O7730     0.63761      .   S
    C2637  O7731     0.63754      .   S
    C1830  O7731     0.63754      .   S
    C2897  O7732     0.63761      .   S
    C1765  O7732     0.63761      .   S
    C102   O7733     0.63776      .   S
    C1440  O7733     0.63776      .   S
    C1833  O7734     0.70600      .   S
    C1836  O7734     0.70600      .   S
    C1833  O7735     0.54117      .   S
    C1875  O7735     0.54117      .   S
    C2158  O7736     0.70600      .   S
    C2161  O7736     0.70600      .   S
    C2158  O7737     0.54117      .   S
    C2200  O7737     0.54117      .   S
    C923   O7738     0.70600      .   S
    C926   O7738     0.70600      .   S
    C923   O7739     0.54117      .   S
    C965   O7739     0.54117      .   S
    C1443  O7740     0.70600      .   S
    C1446  O7740     0.70600      .   S
    C1443  O7741     0.54117      .   S
    C1485  O7741     0.54117      .   S
    C1768  O7742     0.70600      .   S
    C1771  O7742     0.70600      .   S
    C1768  O7743     0.54117      .   S
    C1810  O7743     0.54117      .   S
    C1183  O7744     0.70600      .   S
    C1186  O7744     0.70600      .   S
    C1183  O7745     0.54117      .   S
    C1225  O7745     0.54117      .   S
    C2181  O7746     0.63699      .   S
    C2155  O7746     0.63699      .   S
    C946   O7747     0.63699      .   S
    C920   O7747     0.63699      .   S
    C1791  O7748     0.63699      .   S
    C1765  O7748     0.63699      .   S
    C1466  O7749     0.63699      .   S
    C1440  O7749     0.63699      .   S
    C1856  O7750     0.63699      .   S
    C1830  O7750     0.63699      .   S
    C1206  O7751     0.63699      .   S
    C1180  O7751     0.63699      .   S
    C3145  O7752     0.96649      .   S
    C0     O7752     0.96649      .   S
    C3147  O7753     0.96649      .   S
    C65    O7753     0.96649      .   S
    C3149  O7754     0.96649      .   S
    C130   O7754     0.96649      .   S
    C3151  O7755     0.96649      .   S
    C1300  O7755     0.96649      .   S
    C3153  O7756     0.96649      .   S
    C1040  O7756     0.96649      .   S
    C3155  O7757     0.96649      .   S
    C325   O7757     0.96649      .   S
    C3157  O7758     0.96649      .   S
    C1170  O7758     0.96649      .   S
    C3159  O7759     0.96649      .   S
    C1105  O7759     0.96649      .   S
    C3161  O7760     0.96649      .   S
    C520   O7760     0.96649      .   S
    C3163  O7761     0.96649      .   S
    C585   O7761     0.96649      .   S
    C3165  O7762     0.96649      .   S
    C845   O7762     0.96649      .   S
    C3167  O7763     0.96649      .   S
    C910   O7763     0.96649      .   S
    C3169  O7764     0.96649      .   S
    C1560  O7764     0.96649      .   S
    C3171  O7765     0.96649      .   S
    C2990  O7765     0.96649      .   S
    C3173  O7766     0.96649      .   S
    C1690  O7766     0.96649      .   S
    C3175  O7767     0.96649      .   S
    C1755  O7767     0.96649      .   S
    C3177  O7768     0.96649      .   S
    C1820  O7768     0.96649      .   S
    C3179  O7769     0.96649      .   S
    C2795  O7769     0.96649      .   S
    C3181  O7770     0.96649      .   S
    C1950  O7770     0.96649      .   S
    C3183  O7771     0.96649      .   S
    C2015  O7771     0.96649      .   S
    C3185  O7772     0.96649      .   S
    C2535  O7772     0.96649      .   S
    C3187  O7773     0.96649      .   S
    C2340  O7773     0.96649      .   S
    C3189  O7774     0.96649      .   S
    C2405  O7774     0.96649      .   S
    C3191  O7775     0.96649      .   S
    C2470  O7775     0.96649      .   S
    C3193  O7776     0.96601      .   S
    C3192  O7776     0.96601      .   S
    C3195  O7777     0.96601      .   S
    C3194  O7777     0.96601      .   S
    C3197  O7778     0.96601      .   S
    C3196  O7778     0.96601      .   S
    C3199  O7779     0.96601      .   S
    C3198  O7779     0.96601      .   S
    C3201  O7780     0.96601      .   S
    C3200  O7780     0.96601      .   S
    C3203  O7781     0.96601      .   S
    C3202  O7781     0.96601      .   S
    C3205  O7782     0.96601  1_665   S
    C3204  O7782     0.96601      .   S
    C3207  O7783     0.96601  1_556   S
    C3206  O7783     0.96601      .   S
    C3209  O7784     0.96601  1_565   S
    C3208  O7784     0.96601      .   S
    C3211  O7785     0.96601  1_656   S
    C3210  O7785     0.96601      .   S
    C3213  O7786     0.96601  1_655   S
    C3212  O7786     0.96601      .   S
    C3215  O7787     0.96601  1_566   S
    C3214  O7787     0.96601      .   S
    C3249  O7788     0.96456      .   S
    C3240  O7788     0.96456      .   S
    C3259  O7789     0.96456      .   S
    C3250  O7789     0.96456      .   S
    C3269  O7790     0.96456      .   S
    C3260  O7790     0.96456      .   S
    C3279  O7791     0.96456      .   S
    C3270  O7791     0.96456      .   S
    C3289  O7792     0.96456      .   S
    C3280  O7792     0.96456      .   S
    C3299  O7793     0.96456      .   S
    C3290  O7793     0.96456      .   S
    C3309  O7794     0.96456      .   S
    C3300  O7794     0.96456      .   S
    C3319  O7795     0.96456      .   S
    C3310  O7795     0.96456      .   S
    C3329  O7796     0.96456      .   S
    C3320  O7796     0.96456      .   S
    C3339  O7797     0.96456      .   S
    C3330  O7797     0.96456      .   S
    C3349  O7798     0.96456      .   S
    C3340  O7798     0.96456      .   S
    C3359  O7799     0.96456      .   S
    C3350  O7799     0.96456      .   S
    C3369  O7800     0.96456      .   S
    C3360  O7800     0.96456      .   S
    C3379  O7801     0.96456      .   S
    C3370  O7801     0.96456      .   S
    C3389  O7802     0.96456      .   S
    C3380  O7802     0.96456      .   S
    C3399  O7803     0.96456      .   S
    C3390  O7803     0.96456      .   S
    C3409  O7804     0.96456      .   S
    C3400  O7804     0.96456      .   S
    C3419  O7805     0.96456      .   S
    C3410  O7805     0.96456      .   S
    C3429  O7806     0.96456      .   S
    C3420  O7806     0.96456      .   S
    C3439  O7807     0.96456      .   S
    C3430  O7807     0.96456      .   S
    C3449  O7808     0.96456      .   S
    C3440  O7808     0.96456      .   S
    C3459  O7809     0.96456      .   S
    C3450  O7809     0.96456      .   S
    C3469  O7810     0.96456      .   S
    C3460  O7810     0.96456      .   S
    C3479  O7811     0.96456      .   S
    C3470  O7811     0.96456      .   S
    C3528  O7812     0.96235      .   S
    C3120  O7812     0.96235      .   S
    C3529  O7813     0.96244      .   S
    C3126  O7813     0.96244      .   S
    C3530  O7814     0.96244      .   S
    C3129  O7814     0.96244      .   S
    C3531  O7815     0.96244      .   S
    C3125  O7815     0.96244      .   S
    C3532  O7816     0.96244      .   S
    C3132  O7816     0.96244      .   S
    C3533  O7817     0.96235      .   S
    C3138  O7817     0.96235      .   S
    C3534  O7818     0.96244      .   S
    C3139  O7818     0.96244      .   S
    C3535  O7819     0.96244      .   S
    C3142  O7819     0.96244      .   S
