# CIF file generated by openbabel 2.4.90, see http://openbabel.sf.net
data_I
_chemical_name_common ''
_cell_length_a 6.8215
_cell_length_b 9.31303
_cell_length_c 10.182
_cell_angle_alpha 67.1916
_cell_angle_beta 81.405
_cell_angle_gamma 73.3754
_space_group_name_H-M_alt 'P 1'
_space_group_name_Hall 'P 1'
loop_
    _symmetry_equiv_pos_as_xyz
    x,y,z
loop_
    _atom_site_label
    _atom_site_type_symbol
    _atom_site_fract_x
    _atom_site_fract_y
    _atom_site_fract_z
    _atom_site_occupancy
    C0      C    0.25778   0.09531   0.38989   1.000
    C1      C    0.22975   0.60575   0.30800   1.000
    C2      C    0.25407   0.58792   0.80714   1.000
    C3      C    0.74238   0.90460   0.61010   1.000
    C4      C    0.77034   0.39418   0.69201   1.000
    C5      C    0.74607   0.41200   0.19287   1.000
