# CIF file generated by openbabel 2.4.90, see http://openbabel.sf.net
data_I
_chemical_name_common ''
_cell_length_a 62.8399
_cell_length_b 62.8399
_cell_length_c 62.8399
_cell_angle_alpha 60
_cell_angle_beta 60
_cell_angle_gamma 60
_space_group_name_H-M_alt 'P 1'
_space_group_name_Hall 'P 1'
loop_
    _symmetry_equiv_pos_as_xyz
    x,y,z
loop_
    _atom_site_label
    _atom_site_type_symbol
    _atom_site_fract_x
    _atom_site_fract_y
    _atom_site_fract_z
    _atom_site_occupancy
    Lv0     Lv   0.84017   0.70130   0.28584   1.000
    Lv1     Lv   0.84017   0.17270   0.70130   1.000
    Lv2     Lv   0.76750   0.29891   0.29891   1.000
    Lv3     Lv   0.31080   0.42906   0.83108   1.000
    Lv4     Lv   0.28584   0.70130   0.17270   1.000
    Lv5     Lv   0.33655   0.88865   0.22204   1.000
    Lv6     Lv   0.83108   0.42906   0.31080   1.000
    Lv7     Lv   0.29891   0.63468   0.29891   1.000
    Lv8     Lv   0.20501   0.62494   0.96505   1.000
    Lv9     Lv   0.96505   0.20501   0.62494   1.000
    Lv10    Lv   0.96416   0.07730   0.54870   1.000
    Lv11    Lv   0.28495   0.04499   0.62506   1.000
    Lv12    Lv   0.82094   0.41892   0.93920   1.000
    Lv13    Lv   0.22204   0.33655   0.88865   1.000
    Lv14    Lv   0.04499   0.04499   0.28495   1.000
    Lv15    Lv   0.04499   0.28495   0.04499   1.000
    Lv16    Lv   0.96416   0.54870   0.40983   1.000
    Lv17    Lv   0.55826   0.55826   0.44174   1.000
    Lv18    Lv   0.48250   0.95109   0.61532   1.000
    Lv19    Lv   0.22203   0.55277   0.88865   1.000
    Lv20    Lv   0.82094   0.82094   0.41892   1.000
    Lv21    Lv   0.02797   0.36136   0.69723   1.000
    Lv22    Lv   0.76750   0.29891   0.63468   1.000
    Lv23    Lv   0.53372   0.74191   0.86218   1.000
    Lv24    Lv   0.61532   0.48250   0.95109   1.000
    Lv25    Lv   0.91345   0.69723   0.36136   1.000
    Lv26    Lv   0.84017   0.70130   0.17270   1.000
    Lv27    Lv   0.82094   0.93920   0.41892   1.000
    Lv28    Lv   0.28584   0.17270   0.84017   1.000
    Lv29    Lv   0.63468   0.76750   0.29891   1.000
    Lv30    Lv   0.38782   0.71627   0.38782   1.000
    Lv31    Lv   0.62494   0.20501   0.96505   1.000
    Lv32    Lv   0.50809   0.38782   0.71628   1.000
    Lv33    Lv   0.54870   0.07730   0.96416   1.000
    Lv34    Lv   0.22203   0.88865   0.55277   1.000
    Lv35    Lv   0.80826   0.69174   0.69174   1.000
    Lv36    Lv   0.70130   0.84017   0.28584   1.000
    Lv37    Lv   0.84017   0.28584   0.17270   1.000
    Lv38    Lv   0.17270   0.28584   0.70130   1.000
    Lv39    Lv   0.17270   0.28584   0.84017   1.000
    Lv40    Lv   0.22204   0.33655   0.55277   1.000
    Lv41    Lv   0.63468   0.29891   0.29891   1.000
    Lv42    Lv   0.69723   0.91345   0.36136   1.000
    Lv43    Lv   0.70130   0.84017   0.17270   1.000
    Lv44    Lv   0.38782   0.38782   0.71628   1.000
    Lv45    Lv   0.33655   0.55277   0.88865   1.000
    Lv46    Lv   0.07730   0.54870   0.40983   1.000
    Lv47    Lv   0.28495   0.62506   0.04499   1.000
    Lv48    Lv   0.20501   0.20501   0.96505   1.000
    Lv49    Lv   0.38782   0.38782   0.50809   1.000
    Lv50    Lv   0.40983   0.54870   0.07730   1.000
    Lv51    Lv   0.36135   0.91345   0.69723   1.000
    Lv52    Lv   0.31080   0.42906   0.42906   1.000
    Lv53    Lv   0.36135   0.69723   0.91345   1.000
    Lv54    Lv   0.69723   0.02796   0.36136   1.000
    Lv55    Lv   0.41892   0.82094   0.93920   1.000
    Lv56    Lv   0.69723   0.36136   0.02797   1.000
    Lv57    Lv   0.53373   0.86218   0.74191   1.000
    Lv58    Lv   0.70130   0.28584   0.84017   1.000
    Lv59    Lv   0.55277   0.22204   0.33655   1.000
    Lv60    Lv   0.83108   0.31080   0.42906   1.000
    Lv61    Lv   0.54870   0.96416   0.40983   1.000
    Lv62    Lv   0.86218   0.74191   0.53373   1.000
    Lv63    Lv   0.86218   0.86218   0.53373   1.000
    Lv64    Lv   0.29891   0.29891   0.63468   1.000
    Lv65    Lv   0.96416   0.07730   0.40983   1.000
    Lv66    Lv   0.33655   0.22204   0.55277   1.000
    Lv67    Lv   0.36136   0.69723   0.02797   1.000
    Lv68    Lv   0.70130   0.17270   0.28584   1.000
    Lv69    Lv   0.91345   0.36136   0.02797   1.000
    Lv70    Lv   0.70130   0.28584   0.17270   1.000
    Lv71    Lv   0.04499   0.62506   0.04499   1.000
    Lv72    Lv   0.96416   0.54870   0.07730   1.000
    Lv73    Lv   0.91345   0.36136   0.69723   1.000
    Lv74    Lv   0.62506   0.28495   0.04499   1.000
    Lv75    Lv   0.38782   0.50809   0.71628   1.000
    Lv76    Lv   0.62506   0.04499   0.04499   1.000
    Lv77    Lv   0.40983   0.07730   0.96416   1.000
    Lv78    Lv   0.80826   0.80826   0.69174   1.000
    Lv79    Lv   0.22203   0.55277   0.33655   1.000
    Lv80    Lv   0.62494   0.96505   0.20501   1.000
    Lv81    Lv   0.38782   0.71627   0.50809   1.000
    Lv82    Lv   0.69723   0.36136   0.91345   1.000
    Lv83    Lv   0.69723   0.91345   0.02797   1.000
    Lv84    Lv   0.41892   0.82094   0.82094   1.000
    Lv85    Lv   0.96505   0.62494   0.20501   1.000
    Lv86    Lv   0.55277   0.88864   0.22204   1.000
    Lv87    Lv   0.69723   0.02796   0.91345   1.000
    Lv88    Lv   0.44174   0.44174   0.55826   1.000
    Lv89    Lv   0.74191   0.86218   0.53373   1.000
    Lv90    Lv   0.07730   0.96416   0.54870   1.000
    Lv91    Lv   0.31080   0.83108   0.42906   1.000
    Lv92    Lv   0.62494   0.20501   0.20501   1.000
    Lv93    Lv   0.28584   0.84017   0.17270   1.000
    Lv94    Lv   0.54870   0.40983   0.96416   1.000
    Lv95    Lv   0.69174   0.80826   0.80826   1.000
    Lv96    Lv   0.86218   0.53373   0.74191   1.000
    Lv97    Lv   0.84017   0.17270   0.28584   1.000
    Lv98    Lv   0.71628   0.50809   0.38782   1.000
    Lv99    Lv   0.07730   0.40983   0.54870   1.000
    Lv100   Lv   0.88865   0.55277   0.33655   1.000
    Lv101   Lv   0.42906   0.83108   0.31080   1.000
    Lv102   Lv   0.69174   0.69174   0.80826   1.000
    Lv103   Lv   0.91345   0.02797   0.69723   1.000
    Lv104   Lv   0.88865   0.22203   0.33655   1.000
    Lv105   Lv   0.55277   0.88865   0.33655   1.000
    Lv106   Lv   0.86218   0.53373   0.86218   1.000
    Lv107   Lv   0.42906   0.42906   0.83108   1.000
    Lv108   Lv   0.82094   0.41892   0.82094   1.000
    Lv109   Lv   0.95109   0.95109   0.48250   1.000
    Lv110   Lv   0.95109   0.61532   0.48250   1.000
    Lv111   Lv   0.36135   0.91345   0.02797   1.000
    Lv112   Lv   0.36135   0.02796   0.91345   1.000
    Lv113   Lv   0.40983   0.96416   0.07730   1.000
    Lv114   Lv   0.29891   0.29891   0.76750   1.000
    Lv115   Lv   0.54870   0.96416   0.07730   1.000
    Lv116   Lv   0.54870   0.40983   0.07730   1.000
    Lv117   Lv   0.02797   0.69723   0.36136   1.000
    Lv118   Lv   0.40983   0.54870   0.96416   1.000
    Lv119   Lv   0.83108   0.42906   0.42906   1.000
    Lv120   Lv   0.02797   0.91345   0.36136   1.000
    Lv121   Lv   0.54870   0.07730   0.40983   1.000
    Lv122   Lv   0.82094   0.93920   0.82094   1.000
    Lv123   Lv   0.48250   0.61532   0.95109   1.000
    Lv124   Lv   0.02796   0.36135   0.91345   1.000
    Lv125   Lv   0.55277   0.33655   0.88865   1.000
    Lv126   Lv   0.86218   0.86218   0.74191   1.000
    Lv127   Lv   0.96416   0.40983   0.54870   1.000
    Lv128   Lv   0.02797   0.69723   0.91345   1.000
    Lv129   Lv   0.55277   0.33655   0.22204   1.000
    Lv130   Lv   0.69174   0.80826   0.69174   1.000
    Lv131   Lv   0.29891   0.76750   0.29891   1.000
    Lv132   Lv   0.38782   0.50809   0.38782   1.000
    Lv133   Lv   0.74191   0.86218   0.86218   1.000
    Lv134   Lv   0.93920   0.82094   0.41892   1.000
    Lv135   Lv   0.36135   0.02797   0.69723   1.000
    Lv136   Lv   0.55277   0.22204   0.88865   1.000
    Lv137   Lv   0.93920   0.82094   0.82094   1.000
    Lv138   Lv   0.96416   0.40983   0.07730   1.000
    Lv139   Lv   0.93920   0.41892   0.82094   1.000
    Lv140   Lv   0.42906   0.42906   0.31080   1.000
    Lv141   Lv   0.95109   0.95109   0.61532   1.000
    Lv142   Lv   0.07730   0.96416   0.40983   1.000
    Lv143   Lv   0.29891   0.63468   0.76750   1.000
    Lv144   Lv   0.50809   0.71628   0.38782   1.000
    Lv145   Lv   0.20501   0.62494   0.20501   1.000
    Lv146   Lv   0.04499   0.28495   0.62506   1.000
    Lv147   Lv   0.41892   0.93920   0.82094   1.000
    Lv148   Lv   0.50809   0.38782   0.38782   1.000
    Lv149   Lv   0.53372   0.86218   0.86218   1.000
    Lv150   Lv   0.40983   0.96416   0.54870   1.000
    Lv151   Lv   0.28584   0.70130   0.84017   1.000
    Lv152   Lv   0.62506   0.04499   0.28495   1.000
    Lv153   Lv   0.02797   0.91345   0.69723   1.000
    Lv154   Lv   0.80826   0.69174   0.80826   1.000
    Lv155   Lv   0.84017   0.28584   0.70130   1.000
    Lv156   Lv   0.91345   0.02796   0.36136   1.000
    Lv157   Lv   0.04499   0.62506   0.28495   1.000
    Lv158   Lv   0.44174   0.55826   0.44174   1.000
    Lv159   Lv   0.88865   0.55277   0.22204   1.000
    Lv160   Lv   0.61532   0.95109   0.95109   1.000
    Lv161   Lv   0.61532   0.95109   0.48250   1.000
    Lv162   Lv   0.48250   0.95109   0.95109   1.000
    Lv163   Lv   0.55826   0.44174   0.44174   1.000
    Lv164   Lv   0.95109   0.61532   0.95109   1.000
    Lv165   Lv   0.07730   0.40983   0.96416   1.000
    Lv166   Lv   0.42906   0.83108   0.42906   1.000
    Lv167   Lv   0.28584   0.17270   0.70130   1.000
    Lv168   Lv   0.20501   0.96505   0.20501   1.000
    Lv169   Lv   0.20501   0.20501   0.62494   1.000
    Lv170   Lv   0.88865   0.33655   0.22204   1.000
    Lv171   Lv   0.04499   0.04499   0.62506   1.000
    Lv172   Lv   0.74191   0.53373   0.86218   1.000
    Lv173   Lv   0.07730   0.54870   0.96416   1.000
    Lv174   Lv   0.71627   0.38782   0.38782   1.000
    Lv175   Lv   0.76750   0.63468   0.29891   1.000
    Lv176   Lv   0.88865   0.33655   0.55277   1.000
    Lv177   Lv   0.17270   0.70130   0.28584   1.000
    Lv178   Lv   0.28495   0.04499   0.04499   1.000
    Lv179   Lv   0.42906   0.31080   0.42906   1.000
    Lv180   Lv   0.33655   0.22204   0.88865   1.000
    Lv181   Lv   0.95109   0.48250   0.61532   1.000
    Lv182   Lv   0.20501   0.96505   0.62494   1.000
    Lv183   Lv   0.17270   0.70130   0.84017   1.000
    Lv184   Lv   0.91345   0.69723   0.02797   1.000
    Lv185   Lv   0.88864   0.22204   0.55277   1.000
    Lv186   Lv   0.33655   0.88864   0.55277   1.000
    Lv187   Lv   0.33655   0.55277   0.22204   1.000
    Lv188   Lv   0.96505   0.20501   0.20501   1.000
    Lv189   Lv   0.71627   0.38782   0.50809   1.000
    Lv190   Lv   0.95109   0.48250   0.95109   1.000
    Lv191   Lv   0.40983   0.07730   0.54870   1.000
    Lv192   Lv   0.86218   0.74191   0.86218   1.000
    Lv193   Lv   0.22203   0.88865   0.33655   1.000
    Lv194   Lv   0.17270   0.84017   0.28584   1.000
    Lv195   Lv   0.82094   0.82094   0.93920   1.000
    Lv196   Lv   0.42906   0.31080   0.83108   1.000
    Lv197   Lv   0.44174   0.55826   0.55826   1.000
    Lv198   Lv   0.55826   0.44174   0.55826   1.000
    Lv199   Lv   0.29891   0.76750   0.63468   1.000
    Lv200   Lv   0.63468   0.29891   0.76750   1.000
    Lv201   Lv   0.28584   0.84017   0.70130   1.000
    Lv202   Lv   0.17270   0.84017   0.70130   1.000
    Lv203   Lv   0.70130   0.17270   0.84017   1.000
