# CIF file generated by openbabel 2.4.90, see http://openbabel.sf.net
data_I
_chemical_name_common ''
_cell_length_a 62.8399
_cell_length_b 62.8399
_cell_length_c 62.8399
_cell_angle_alpha 60
_cell_angle_beta 60
_cell_angle_gamma 60
_space_group_name_H-M_alt 'P 1'
_space_group_name_Hall 'P 1'
loop_
    _symmetry_equiv_pos_as_xyz
    x,y,z
loop_
    _atom_site_label
    _atom_site_type_symbol
    _atom_site_fract_x
    _atom_site_fract_y
    _atom_site_fract_z
    _atom_site_occupancy
    Cr0     Cr   0.30656   0.35963   0.53034   1.000
    C1      C    0.42240   0.46092   0.54723   1.000
    C2      C    0.36102   0.39955   0.51247   1.000
    C3      C    0.37603   0.41455   0.50403   1.000
    C4      C    0.31679   0.40521   0.42746   1.000
    C5      C    0.31227   0.38220   0.47489   1.000
    C6      C    0.31089   0.40641   0.45167   1.000
    C7      C    0.30458   0.43068   0.45304   1.000
    C8      C    0.18594   0.20837   0.64843   1.000
    C9      C    0.15936   0.25305   0.62501   1.000
    C10     C    0.18218   0.22795   0.62494   1.000
    C11     C    0.20145   0.22390   0.60143   1.000
    C12     C    0.16297   0.26799   0.70516   1.000
    C13     C    0.14404   0.29961   0.66831   1.000
    C14     C    0.15870   0.29240   0.68530   1.000
    C15     C    0.17681   0.26152   0.72083   1.000
    C16     C    0.20310   0.27199   0.73261   1.000
    C17     C    0.18675   0.27927   0.71726   1.000
    C18     C    0.16851   0.31016   0.68190   1.000
    C19     C    0.18222   0.30374   0.69757   1.000
    C20     C    0.28425   0.32264   0.62099   1.000
    C21     C    0.27520   0.31363   0.64841   1.000
    C22     C    0.32224   0.24194   0.53632   1.000
    C23     C    0.34166   0.27304   0.52830   1.000
    C24     C    0.33972   0.24672   0.53987   1.000
    C25     C    0.31889   0.21750   0.54938   1.000
    Cr26    Cr   0.11423   0.28384   0.65770   1.000
    C27     C    0.07796   0.33257   0.66808   1.000
    C28     C    0.33299   0.19747   0.56615   1.000
    C29     C    0.35438   0.22638   0.55592   1.000
    C30     C    0.35111   0.20213   0.56881   1.000
    O31     O    0.42559   0.46103   0.50214   1.000
    O32     O    0.33327   0.36883   0.52525   1.000
    O33     O    0.40801   0.44352   0.48477   1.000
    O34     O    0.30637   0.38370   0.49673   1.000
    O35     O    0.36082   0.31969   0.47176   1.000
    O36     O    0.14341   0.25626   0.64681   1.000
    O37     O    0.09285   0.28098   0.64670   1.000
    O38     O    0.13396   0.28390   0.67277   1.000
    O39     O    0.14205   0.32149   0.65000   1.000
    O40     O    0.20797   0.24927   0.74940   1.000
    O41     O    0.21218   0.28867   0.72771   1.000
    O42     O    0.30379   0.33926   0.56556   1.000
    O43     O    0.25801   0.29346   0.70249   1.000
    O44     O    0.33112   0.29016   0.51111   1.000
    O45     O    0.27746   0.35332   0.53657   1.000
    O46     O    0.08410   0.30855   0.67227   1.000
    O47     O    0.15737   0.33907   0.59943   1.000
    H48     H    0.40729   0.47622   0.53902   1.000
    H49     H    0.34037   0.40917   0.51532   1.000
    H50     H    0.36649   0.43529   0.50073   1.000
    H51     H    0.32174   0.38695   0.42554   1.000
    H52     H    0.29999   0.43236   0.47131   1.000
    H53     H    0.17176   0.21061   0.66698   1.000
    H54     H    0.19950   0.23842   0.58290   1.000
    H55     H    0.15579   0.25374   0.70849   1.000
    H56     H    0.17998   0.24241   0.73557   1.000
    H57     H    0.16567   0.32917   0.66698   1.000
    H58     H    0.18961   0.31797   0.69394   1.000
    H59     H    0.27242   0.34107   0.61090   1.000
    H60     H    0.25665   0.32549   0.65835   1.000
    H61     H    0.31059   0.25730   0.52408   1.000
    H62     H    0.30483   0.21452   0.54690   1.000
    H63     H    0.36814   0.22928   0.55895   1.000
    H64     H    0.36260   0.18711   0.58131   1.000
    Cr65    Cr   0.28384   0.11423   0.94423   1.000
    Cr66    Cr   0.35963   0.30656   0.80348   1.000
    C67     C    0.46092   0.42240   0.56944   1.000
    C68     C    0.39955   0.36102   0.72696   1.000
    C69     C    0.41455   0.37603   0.70539   1.000
    C70     C    0.40521   0.31679   0.85054   1.000
    C71     C    0.38220   0.31227   0.83063   1.000
    C72     C    0.40641   0.31089   0.83104   1.000
    C73     C    0.43068   0.30458   0.81170   1.000
    C74     C    0.20837   0.18594   0.95726   1.000
    C75     C    0.25305   0.15936   0.96258   1.000
    C76     C    0.22795   0.18218   0.96494   1.000
    C77     C    0.22390   0.20145   0.97322   1.000
    C78     C    0.26799   0.16297   0.86389   1.000
    C79     C    0.29961   0.14404   0.88804   1.000
    C80     C    0.29240   0.15870   0.86360   1.000
    C81     C    0.26152   0.17681   0.84085   1.000
    C82     C    0.27199   0.20310   0.79230   1.000
    C83     C    0.27927   0.18675   0.81672   1.000
    C84     C    0.31016   0.16851   0.83943   1.000
    C85     C    0.30374   0.18222   0.81647   1.000
    C86     C    0.32264   0.28425   0.77212   1.000
    C87     C    0.31363   0.27520   0.76276   1.000
    C88     C    0.24194   0.32224   0.89950   1.000
    C89     C    0.27304   0.34166   0.85700   1.000
    C90     C    0.24672   0.33972   0.87369   1.000
    C91     C    0.21750   0.31889   0.91423   1.000
    C92     C    0.33257   0.07796   0.92138   1.000
    C93     C    0.19747   0.33299   0.90339   1.000
    C94     C    0.22638   0.35438   0.86331   1.000
    C95     C    0.20213   0.35111   0.87794   1.000
    O96     O    0.46103   0.42559   0.61124   1.000
    O97     O    0.36883   0.33327   0.77265   1.000
    O98     O    0.44352   0.40801   0.66370   1.000
    O99     O    0.38370   0.30637   0.81320   1.000
    C100    C    0.70539   0.50403   0.41455   1.000
    C101    C    0.85054   0.42746   0.40521   1.000
    C102    C    0.83063   0.47489   0.38220   1.000
    O103    O    0.31969   0.36082   0.84773   1.000
    O104    O    0.25626   0.14341   0.95352   1.000
    O105    O    0.28098   0.09285   0.97946   1.000
    O106    O    0.28390   0.13396   0.90937   1.000
    O107    O    0.32149   0.14205   0.88647   1.000
    O108    O    0.24927   0.20797   0.79336   1.000
    O109    O    0.28867   0.21218   0.77143   1.000
    O110    O    0.33926   0.30379   0.79140   1.000
    O111    O    0.29346   0.25801   0.74604   1.000
    O112    O    0.29016   0.33112   0.86762   1.000
    O113    O    0.35332   0.27746   0.83264   1.000
    O114    O    0.30855   0.08410   0.93508   1.000
    O115    O    0.33907   0.15737   0.90414   1.000
    H116    H    0.47622   0.40729   0.57747   1.000
    H117    H    0.40917   0.34037   0.73515   1.000
    H118    H    0.43529   0.36649   0.69749   1.000
    H119    H    0.38695   0.32174   0.86577   1.000
    H120    H    0.43236   0.29999   0.79634   1.000
    H121    H    0.21061   0.17176   0.95064   1.000
    H122    H    0.23842   0.19950   0.97918   1.000
    H123    H    0.25374   0.15579   0.88199   1.000
    H124    H    0.24241   0.17998   0.84203   1.000
    H125    H    0.32917   0.16567   0.83819   1.000
    H126    H    0.31797   0.18961   0.79849   1.000
    H127    H    0.34107   0.27242   0.77561   1.000
    H128    H    0.32549   0.25665   0.75951   1.000
    H129    H    0.25730   0.31059   0.90802   1.000
    H130    H    0.21452   0.30483   0.93376   1.000
    H131    H    0.90802   0.52408   0.25730   1.000
    H132    H    0.93376   0.54690   0.21452   1.000
    H133    H    0.84363   0.55895   0.22928   1.000
    H134    H    0.86898   0.58131   0.18711   1.000
    H135    H    0.22928   0.36814   0.84363   1.000
    H136    H    0.18711   0.36260   0.86898   1.000
    Cr137   Cr   0.65770   0.94423   0.11423   1.000
    Cr138   Cr   0.53034   0.80348   0.30656   1.000
    C139    C    0.54723   0.56944   0.42240   1.000
    C140    C    0.51247   0.72696   0.36102   1.000
    C141    C    0.50403   0.70539   0.37603   1.000
    C142    C    0.42746   0.85054   0.31679   1.000
    C143    C    0.47489   0.83063   0.31227   1.000
    C144    C    0.45167   0.83104   0.31089   1.000
    C145    C    0.45304   0.81170   0.30458   1.000
    C146    C    0.64843   0.95726   0.18594   1.000
    C147    C    0.62501   0.96258   0.15936   1.000
    C148    C    0.62494   0.96494   0.18218   1.000
    C149    C    0.60143   0.97322   0.20145   1.000
    C150    C    0.70516   0.86389   0.16297   1.000
    C151    C    0.66831   0.88804   0.14404   1.000
    C152    C    0.68530   0.86360   0.15870   1.000
    C153    C    0.72083   0.84085   0.17681   1.000
    C154    C    0.73261   0.79230   0.20310   1.000
    C155    C    0.71726   0.81672   0.18675   1.000
    C156    C    0.68190   0.83943   0.16851   1.000
    C157    C    0.69757   0.81647   0.18222   1.000
    C158    C    0.62099   0.77212   0.28425   1.000
    C159    C    0.64841   0.76276   0.27520   1.000
    C160    C    0.53632   0.89950   0.32224   1.000
    C161    C    0.52830   0.85700   0.34166   1.000
    C162    C    0.53987   0.87369   0.33972   1.000
    C163    C    0.54938   0.91423   0.31889   1.000
    C164    C    0.66808   0.92138   0.07796   1.000
    C165    C    0.56615   0.90339   0.33299   1.000
    C166    C    0.55592   0.86331   0.35438   1.000
    C167    C    0.56881   0.87794   0.35111   1.000
    O168    O    0.50214   0.61124   0.42559   1.000
    O169    O    0.52525   0.77265   0.33327   1.000
    O170    O    0.48477   0.66370   0.40801   1.000
    O171    O    0.49673   0.81320   0.30637   1.000
    O172    O    0.47176   0.84773   0.36082   1.000
    O173    O    0.64681   0.95352   0.14341   1.000
    O174    O    0.64670   0.97946   0.09285   1.000
    O175    O    0.67277   0.90937   0.13396   1.000
    O176    O    0.65000   0.88647   0.14205   1.000
    O177    O    0.74940   0.79336   0.20797   1.000
    O178    O    0.72771   0.77143   0.21218   1.000
    O179    O    0.56556   0.79140   0.30379   1.000
    O180    O    0.70249   0.74604   0.25801   1.000
    O181    O    0.51111   0.86762   0.33112   1.000
    O182    O    0.53657   0.83264   0.27746   1.000
    O183    O    0.67227   0.93508   0.08410   1.000
    O184    O    0.59943   0.90414   0.15737   1.000
    H185    H    0.53902   0.57747   0.40729   1.000
    H186    H    0.51532   0.73515   0.34037   1.000
    H187    H    0.50073   0.69749   0.36649   1.000
    H188    H    0.42554   0.86577   0.32174   1.000
    H189    H    0.47131   0.79634   0.29999   1.000
    H190    H    0.66698   0.95064   0.17176   1.000
    H191    H    0.58290   0.97918   0.19950   1.000
    H192    H    0.70849   0.88199   0.15579   1.000
    H193    H    0.73557   0.84203   0.17998   1.000
    H194    H    0.66698   0.83819   0.16567   1.000
    H195    H    0.69394   0.79849   0.18961   1.000
    H196    H    0.61090   0.77561   0.27242   1.000
    H197    H    0.65835   0.75951   0.25665   1.000
    H198    H    0.52408   0.90802   0.31059   1.000
    H199    H    0.54690   0.93376   0.30483   1.000
    H200    H    0.55895   0.84363   0.36814   1.000
    H201    H    0.58131   0.86898   0.36260   1.000
    Cr202   Cr   0.94423   0.65770   0.28384   1.000
    Cr203   Cr   0.80348   0.53034   0.35963   1.000
    C204    C    0.56944   0.54723   0.46092   1.000
    C205    C    0.72696   0.51247   0.39955   1.000
    C206    C    0.31089   0.45167   0.83104   1.000
    C207    C    0.30458   0.45304   0.81170   1.000
    C208    C    0.18594   0.64843   0.95726   1.000
    C209    C    0.15936   0.62501   0.96258   1.000
    C210    C    0.18218   0.62494   0.96494   1.000
    C211    C    0.20145   0.60143   0.97322   1.000
    C212    C    0.83104   0.45167   0.40641   1.000
    C213    C    0.81170   0.45304   0.43068   1.000
    C214    C    0.95726   0.64843   0.20837   1.000
    C215    C    0.96258   0.62501   0.25305   1.000
    C216    C    0.96494   0.62494   0.22795   1.000
    C217    C    0.97322   0.60143   0.22390   1.000
    C218    C    0.86389   0.70516   0.26799   1.000
    C219    C    0.88804   0.66831   0.29961   1.000
    C220    C    0.86360   0.68530   0.29240   1.000
    C221    C    0.84085   0.72083   0.26152   1.000
    C222    C    0.79230   0.73261   0.27199   1.000
    C223    C    0.81672   0.71726   0.27927   1.000
    C224    C    0.83943   0.68190   0.31016   1.000
    C225    C    0.81647   0.69757   0.30374   1.000
    C226    C    0.77212   0.62099   0.32264   1.000
    C227    C    0.76276   0.64841   0.31363   1.000
    C228    C    0.89950   0.53632   0.24194   1.000
    C229    C    0.85700   0.52830   0.27304   1.000
    C230    C    0.87369   0.53987   0.24672   1.000
    C231    C    0.91423   0.54938   0.21750   1.000
    C232    C    0.92138   0.66808   0.33257   1.000
    C233    C    0.90339   0.56615   0.19747   1.000
    C234    C    0.86331   0.55592   0.22638   1.000
    C235    C    0.87794   0.56881   0.20213   1.000
    O236    O    0.61124   0.50214   0.46103   1.000
    O237    O    0.77265   0.52525   0.36883   1.000
    O238    O    0.66370   0.48477   0.44352   1.000
    O239    O    0.81320   0.49673   0.38370   1.000
    O240    O    0.84773   0.47176   0.31969   1.000
    O241    O    0.95352   0.64681   0.25626   1.000
    O242    O    0.97946   0.64670   0.28098   1.000
    O243    O    0.90937   0.67277   0.28390   1.000
    O244    O    0.88647   0.65000   0.32149   1.000
    O245    O    0.79336   0.74940   0.24927   1.000
    O246    O    0.77143   0.72771   0.28867   1.000
    O247    O    0.79140   0.56556   0.33926   1.000
    O248    O    0.74604   0.70249   0.29346   1.000
    O249    O    0.86762   0.51111   0.29016   1.000
    O250    O    0.83264   0.53657   0.35332   1.000
    O251    O    0.93508   0.67227   0.30855   1.000
    O252    O    0.90414   0.59943   0.33907   1.000
    H253    H    0.57747   0.53902   0.47622   1.000
    H254    H    0.73515   0.51532   0.40917   1.000
    H255    H    0.69749   0.50073   0.43529   1.000
    H256    H    0.86577   0.42554   0.38695   1.000
    H257    H    0.79634   0.47131   0.43236   1.000
    H258    H    0.95064   0.66698   0.21061   1.000
    H259    H    0.97918   0.58290   0.23842   1.000
    H260    H    0.88199   0.70849   0.25374   1.000
    H261    H    0.84203   0.73557   0.24241   1.000
    H262    H    0.83819   0.66698   0.32917   1.000
    H263    H    0.79849   0.69394   0.31797   1.000
    H264    H    0.77561   0.61090   0.34107   1.000
    H265    H    0.75951   0.65835   0.32549   1.000
    H266    H    0.32917   0.83819   0.66698   1.000
    H267    H    0.31797   0.79849   0.69394   1.000
    H268    H    0.34107   0.77561   0.61090   1.000
    H269    H    0.32549   0.75951   0.65835   1.000
    H270    H    0.25730   0.90802   0.52408   1.000
    H271    H    0.21452   0.93376   0.54690   1.000
    H272    H    0.22928   0.84363   0.55895   1.000
    H273    H    0.18711   0.86898   0.58131   1.000
    Cr274   Cr   0.65770   0.11423   0.28384   1.000
    Cr275   Cr   0.53034   0.30656   0.35963   1.000
    C276    C    0.54723   0.42240   0.46092   1.000
    C277    C    0.51247   0.36102   0.39955   1.000
    C278    C    0.50403   0.37603   0.41455   1.000
    C279    C    0.42746   0.31679   0.40521   1.000
    C280    C    0.47489   0.31227   0.38220   1.000
    C281    C    0.45167   0.31089   0.40641   1.000
    C282    C    0.45304   0.30458   0.43068   1.000
    C283    C    0.64843   0.18594   0.20837   1.000
    C284    C    0.62501   0.15936   0.25305   1.000
    C285    C    0.62494   0.18218   0.22795   1.000
    C286    C    0.60143   0.20145   0.22390   1.000
    C287    C    0.70516   0.16297   0.26799   1.000
    C288    C    0.66831   0.14404   0.29961   1.000
    C289    C    0.68530   0.15870   0.29240   1.000
    C290    C    0.72083   0.17681   0.26152   1.000
    C291    C    0.73261   0.20310   0.27199   1.000
    C292    C    0.71726   0.18675   0.27927   1.000
    C293    C    0.68190   0.16851   0.31016   1.000
    C294    C    0.69757   0.18222   0.30374   1.000
    C295    C    0.62099   0.28425   0.32264   1.000
    C296    C    0.64841   0.27520   0.31363   1.000
    C297    C    0.53632   0.32224   0.24194   1.000
    C298    C    0.52830   0.34166   0.27304   1.000
    C299    C    0.53987   0.33972   0.24672   1.000
    C300    C    0.54938   0.31889   0.21750   1.000
    C301    C    0.66808   0.07796   0.33257   1.000
    C302    C    0.56615   0.33299   0.19747   1.000
    C303    C    0.55592   0.35438   0.22638   1.000
    C304    C    0.56881   0.35111   0.20213   1.000
    O305    O    0.50214   0.42559   0.46103   1.000
    O306    O    0.52525   0.33327   0.36883   1.000
    O307    O    0.48477   0.40801   0.44352   1.000
    O308    O    0.49673   0.30637   0.38370   1.000
    O309    O    0.47176   0.36082   0.31969   1.000
    O310    O    0.64681   0.14341   0.25626   1.000
    O311    O    0.64670   0.09285   0.28098   1.000
    O312    O    0.67277   0.13396   0.28390   1.000
    O313    O    0.65000   0.14205   0.32149   1.000
    O314    O    0.74940   0.20797   0.24927   1.000
    O315    O    0.72771   0.21218   0.28867   1.000
    O316    O    0.56556   0.30379   0.33926   1.000
    O317    O    0.70249   0.25801   0.29346   1.000
    O318    O    0.51111   0.33112   0.29016   1.000
    O319    O    0.53657   0.27746   0.35332   1.000
    O320    O    0.67227   0.08410   0.30855   1.000
    O321    O    0.59943   0.15737   0.33907   1.000
    H322    H    0.53902   0.40729   0.47622   1.000
    H323    H    0.51532   0.34037   0.40917   1.000
    H324    H    0.50073   0.36649   0.43529   1.000
    H325    H    0.42554   0.32174   0.38695   1.000
    H326    H    0.47131   0.29999   0.43236   1.000
    H327    H    0.66698   0.17176   0.21061   1.000
    H328    H    0.58290   0.19950   0.23842   1.000
    H329    H    0.70849   0.15579   0.25374   1.000
    H330    H    0.73557   0.17998   0.24241   1.000
    H331    H    0.66698   0.16567   0.32917   1.000
    H332    H    0.69394   0.18961   0.31797   1.000
    H333    H    0.61090   0.27242   0.34107   1.000
    H334    H    0.65835   0.25665   0.32549   1.000
    H335    H    0.52408   0.31059   0.25730   1.000
    H336    H    0.54690   0.30483   0.21452   1.000
    H337    H    0.55895   0.36814   0.22928   1.000
    H338    H    0.58131   0.36260   0.18711   1.000
    Cr339   Cr   0.94423   0.28384   0.11423   1.000
    Cr340   Cr   0.80348   0.35963   0.30656   1.000
    C341    C    0.56944   0.46092   0.42240   1.000
    C342    C    0.72696   0.39955   0.36102   1.000
    C343    C    0.70539   0.41455   0.37603   1.000
    C344    C    0.85054   0.40521   0.31679   1.000
    C345    C    0.83063   0.38220   0.31227   1.000
    C346    C    0.83104   0.40641   0.31089   1.000
    C347    C    0.81170   0.43068   0.30458   1.000
    C348    C    0.95726   0.20837   0.18594   1.000
    C349    C    0.96258   0.25305   0.15936   1.000
    C350    C    0.96494   0.22795   0.18218   1.000
    C351    C    0.97322   0.22390   0.20145   1.000
    C352    C    0.86389   0.26799   0.16297   1.000
    C353    C    0.88804   0.29961   0.14404   1.000
    C354    C    0.86360   0.29240   0.15870   1.000
    C355    C    0.84085   0.26152   0.17681   1.000
    C356    C    0.79230   0.27199   0.20310   1.000
    C357    C    0.81672   0.27927   0.18675   1.000
    C358    C    0.83943   0.31016   0.16851   1.000
    C359    C    0.81647   0.30374   0.18222   1.000
    C360    C    0.77212   0.32264   0.28425   1.000
    C361    C    0.76276   0.31363   0.27520   1.000
    C362    C    0.89950   0.24194   0.32224   1.000
    C363    C    0.85700   0.27304   0.34166   1.000
    C364    C    0.87369   0.24672   0.33972   1.000
    C365    C    0.91423   0.21750   0.31889   1.000
    C366    C    0.92138   0.33257   0.07796   1.000
    C367    C    0.90339   0.19747   0.33299   1.000
    C368    C    0.86331   0.22638   0.35438   1.000
    C369    C    0.87794   0.20213   0.35111   1.000
    O370    O    0.61124   0.46103   0.42559   1.000
    O371    O    0.77265   0.36883   0.33327   1.000
    O372    O    0.66370   0.44352   0.40801   1.000
    O373    O    0.81320   0.38370   0.30637   1.000
    O374    O    0.84773   0.31969   0.36082   1.000
    O375    O    0.95352   0.25626   0.14341   1.000
    O376    O    0.97946   0.28098   0.09285   1.000
    O377    O    0.90937   0.28390   0.13396   1.000
    O378    O    0.88647   0.32149   0.14205   1.000
    O379    O    0.79336   0.24927   0.20797   1.000
    O380    O    0.77143   0.28867   0.21218   1.000
    O381    O    0.79140   0.33926   0.30379   1.000
    O382    O    0.74604   0.29346   0.25801   1.000
    O383    O    0.86762   0.29016   0.33112   1.000
    O384    O    0.83264   0.35332   0.27746   1.000
    O385    O    0.93508   0.30855   0.08410   1.000
    O386    O    0.90414   0.33907   0.15737   1.000
    H387    H    0.57747   0.47622   0.40729   1.000
    H388    H    0.73515   0.40917   0.34037   1.000
    H389    H    0.69749   0.43529   0.36649   1.000
    H390    H    0.86577   0.38695   0.32174   1.000
    H391    H    0.79634   0.43236   0.29999   1.000
    H392    H    0.95064   0.21061   0.17176   1.000
    H393    H    0.97918   0.23842   0.19950   1.000
    H394    H    0.88199   0.25374   0.15579   1.000
    H395    H    0.84203   0.24241   0.17998   1.000
    H396    H    0.83819   0.32917   0.16567   1.000
    H397    H    0.79849   0.31797   0.18961   1.000
    H398    H    0.77561   0.34107   0.27242   1.000
    H399    H    0.75951   0.32549   0.25665   1.000
    H400    H    0.90802   0.25730   0.31059   1.000
    H401    H    0.93376   0.21452   0.30483   1.000
    H402    H    0.84363   0.22928   0.36814   1.000
    H403    H    0.86898   0.18711   0.36260   1.000
    Cr404   Cr   0.11423   0.65770   0.94423   1.000
    Cr405   Cr   0.30656   0.53034   0.80348   1.000
    C406    C    0.42240   0.54723   0.56944   1.000
    C407    C    0.36102   0.51247   0.72696   1.000
    C408    C    0.37603   0.50403   0.70539   1.000
    C409    C    0.31679   0.42746   0.85054   1.000
    C410    C    0.31227   0.47489   0.83063   1.000
    C411    C    0.08703   0.98201   0.38611   1.000
    C412    C    0.10596   0.95039   0.36196   1.000
    C413    C    0.09130   0.95760   0.38640   1.000
    C414    C    0.07319   0.98848   0.40915   1.000
    C415    C    0.04690   0.97801   0.45770   1.000
    C416    C    0.06325   0.97073   0.43328   1.000
    C417    C    0.08149   0.93984   0.41057   1.000
    C418    C    0.06778   0.94626   0.43353   1.000
    C419    C    0.96575   0.92736   0.47788   1.000
    C420    C    0.97480   0.93637   0.48724   1.000
    C421    C    0.92776   0.00806   0.35050   1.000
    C422    C    0.90834   0.97696   0.39300   1.000
    C423    C    0.16297   0.70516   0.86389   1.000
    C424    C    0.14404   0.66831   0.88804   1.000
    C425    C    0.15870   0.68530   0.86360   1.000
    C426    C    0.17681   0.72083   0.84085   1.000
    C427    C    0.20310   0.73261   0.79230   1.000
    C428    C    0.18675   0.71726   0.81672   1.000
    C429    C    0.16851   0.68190   0.83943   1.000
    C430    C    0.18222   0.69757   0.81647   1.000
    C431    C    0.28425   0.62099   0.77212   1.000
    C432    C    0.27520   0.64841   0.76276   1.000
    C433    C    0.32224   0.53632   0.89950   1.000
    C434    C    0.34166   0.52830   0.85700   1.000
    C435    C    0.33972   0.53987   0.87369   1.000
    C436    C    0.31889   0.54938   0.91423   1.000
    C437    C    0.07796   0.66808   0.92138   1.000
    C438    C    0.33299   0.56615   0.90339   1.000
    C439    C    0.35438   0.55592   0.86331   1.000
    C440    C    0.35111   0.56881   0.87794   1.000
    O441    O    0.42559   0.50214   0.61124   1.000
    O442    O    0.33327   0.52525   0.77265   1.000
    O443    O    0.40801   0.48477   0.66370   1.000
    O444    O    0.30637   0.49673   0.81320   1.000
    O445    O    0.36082   0.47176   0.84773   1.000
    O446    O    0.14341   0.64681   0.95352   1.000
    O447    O    0.09285   0.64670   0.97946   1.000
    O448    O    0.13396   0.67277   0.90937   1.000
    O449    O    0.14205   0.65000   0.88647   1.000
    O450    O    0.20797   0.74940   0.79336   1.000
    O451    O    0.21218   0.72771   0.77143   1.000
    O452    O    0.30379   0.56556   0.79140   1.000
    O453    O    0.25801   0.70249   0.74604   1.000
    O454    O    0.33112   0.51111   0.86762   1.000
    O455    O    0.27746   0.53657   0.83264   1.000
    O456    O    0.08410   0.67227   0.93508   1.000
    O457    O    0.15737   0.59943   0.90414   1.000
    H458    H    0.40729   0.53902   0.57747   1.000
    H459    H    0.34037   0.51532   0.73515   1.000
    H460    H    0.36649   0.50073   0.69749   1.000
    H461    H    0.32174   0.42554   0.86577   1.000
    H462    H    0.29999   0.47131   0.79634   1.000
    H463    H    0.17176   0.66698   0.95064   1.000
    H464    H    0.19950   0.58290   0.97918   1.000
    H465    H    0.15579   0.70849   0.88199   1.000
    H466    H    0.17998   0.73557   0.84203   1.000
    H467    H    0.16567   0.66698   0.83819   1.000
    H468    H    0.18961   0.69394   0.79849   1.000
    H469    H    0.27242   0.61090   0.77561   1.000
    H470    H    0.25665   0.65835   0.75951   1.000
    H471    H    0.31059   0.52408   0.90802   1.000
    H472    H    0.30483   0.54690   0.93376   1.000
    H473    H    0.36814   0.55895   0.84363   1.000
    H474    H    0.36260   0.58131   0.86898   1.000
    Cr475   Cr   0.28384   0.94423   0.65770   1.000
    Cr476   Cr   0.35963   0.80348   0.53034   1.000
    C477    C    0.46092   0.56944   0.54723   1.000
    C478    C    0.39955   0.72696   0.51247   1.000
    C479    C    0.41455   0.70539   0.50403   1.000
    C480    C    0.40521   0.85054   0.42746   1.000
    C481    C    0.38220   0.83063   0.47489   1.000
    C482    C    0.40641   0.83104   0.45167   1.000
    C483    C    0.43068   0.81170   0.45304   1.000
    C484    C    0.20837   0.95726   0.64843   1.000
    C485    C    0.25305   0.96258   0.62501   1.000
    C486    C    0.22795   0.96494   0.62494   1.000
    C487    C    0.22390   0.97322   0.60143   1.000
    C488    C    0.26799   0.86389   0.70516   1.000
    C489    C    0.29961   0.88804   0.66831   1.000
    C490    C    0.29240   0.86360   0.68530   1.000
    C491    C    0.26152   0.84085   0.72083   1.000
    C492    C    0.27199   0.79230   0.73261   1.000
    C493    C    0.27927   0.81672   0.71726   1.000
    C494    C    0.31016   0.83943   0.68190   1.000
    C495    C    0.30374   0.81647   0.69757   1.000
    C496    C    0.32264   0.77212   0.62099   1.000
    C497    C    0.31363   0.76276   0.64841   1.000
    C498    C    0.24194   0.89950   0.53632   1.000
    C499    C    0.27304   0.85700   0.52830   1.000
    C500    C    0.24672   0.87369   0.53987   1.000
    C501    C    0.21750   0.91423   0.54938   1.000
    C502    C    0.33257   0.92138   0.66808   1.000
    C503    C    0.19747   0.90339   0.56615   1.000
    C504    C    0.22638   0.86331   0.55592   1.000
    C505    C    0.20213   0.87794   0.56881   1.000
    O506    O    0.46103   0.61124   0.50214   1.000
    O507    O    0.36883   0.77265   0.52525   1.000
    O508    O    0.44352   0.66370   0.48477   1.000
    O509    O    0.38370   0.81320   0.49673   1.000
    O510    O    0.31969   0.84773   0.47176   1.000
    O511    O    0.25626   0.95352   0.64681   1.000
    O512    O    0.28098   0.97946   0.64670   1.000
    O513    O    0.28390   0.90937   0.67277   1.000
    O514    O    0.32149   0.88647   0.65000   1.000
    O515    O    0.24927   0.79336   0.74940   1.000
    O516    O    0.28867   0.77143   0.72771   1.000
    O517    O    0.33926   0.79140   0.56556   1.000
    O518    O    0.29346   0.74604   0.70249   1.000
    O519    O    0.29016   0.86762   0.51111   1.000
    O520    O    0.35332   0.83264   0.53657   1.000
    O521    O    0.30855   0.93508   0.67227   1.000
    O522    O    0.33907   0.90414   0.59943   1.000
    H523    H    0.47622   0.57747   0.53902   1.000
    H524    H    0.40917   0.73515   0.51532   1.000
    H525    H    0.43529   0.69749   0.50073   1.000
    H526    H    0.38695   0.86577   0.42554   1.000
    H527    H    0.43236   0.79634   0.47131   1.000
    H528    H    0.21061   0.95064   0.66698   1.000
    H529    H    0.23842   0.97918   0.58290   1.000
    H530    H    0.25374   0.88199   0.70849   1.000
    H531    H    0.24241   0.84203   0.73557   1.000
    H532    H    0.51485   0.73468   0.90963   1.000
    H533    H    0.55251   0.74927   0.88351   1.000
    H534    H    0.38423   0.82446   0.92826   1.000
    H535    H    0.45366   0.77869   0.95001   1.000
    H536    H    0.29936   0.58302   0.07824   1.000
    H537    H    0.27082   0.66710   0.05050   1.000
    H538    H    0.36801   0.54151   0.09421   1.000
    H539    H    0.40797   0.51443   0.07002   1.000
    H540    H    0.41181   0.58302   0.08433   1.000
    H541    H    0.45151   0.55606   0.06039   1.000
    H542    H    0.47439   0.63910   0.97758   1.000
    H543    H    0.49049   0.59165   0.99335   1.000
    H544    H    0.34198   0.72592   0.93941   1.000
    H545    H    0.31624   0.70310   0.94517   1.000
    H546    H    0.40637   0.69105   0.88186   1.000
    H547    H    0.38102   0.66869   0.88740   1.000
    Cr548   Cr   0.28384   0.65770   0.11423   1.000
    Cr549   Cr   0.35963   0.53034   0.30656   1.000
    C550    C    0.46092   0.54723   0.42240   1.000
    C551    C    0.39955   0.51247   0.36102   1.000
    C552    C    0.41455   0.50403   0.37603   1.000
    C553    C    0.40521   0.42746   0.31679   1.000
    C554    C    0.38220   0.47489   0.31227   1.000
    C555    C    0.40641   0.45167   0.31089   1.000
    C556    C    0.43068   0.45304   0.30458   1.000
    C557    C    0.20837   0.64843   0.18594   1.000
    C558    C    0.25305   0.62501   0.15936   1.000
    C559    C    0.22795   0.62494   0.18218   1.000
    C560    C    0.22390   0.60143   0.20145   1.000
    C561    C    0.26799   0.70516   0.16297   1.000
    C562    C    0.29961   0.66831   0.14404   1.000
    C563    C    0.29240   0.68530   0.15870   1.000
    C564    C    0.26152   0.72083   0.17681   1.000
    C565    C    0.27199   0.73261   0.20310   1.000
    C566    C    0.27927   0.71726   0.18675   1.000
    C567    C    0.31016   0.68190   0.16851   1.000
    C568    C    0.30374   0.69757   0.18222   1.000
    C569    C    0.32264   0.62099   0.28425   1.000
    C570    C    0.31363   0.64841   0.27520   1.000
    C571    C    0.24194   0.53632   0.32224   1.000
    C572    C    0.27304   0.52830   0.34166   1.000
    C573    C    0.24672   0.53987   0.33972   1.000
    C574    C    0.21750   0.54938   0.31889   1.000
    C575    C    0.33257   0.66808   0.07796   1.000
    C576    C    0.19747   0.56615   0.33299   1.000
    C577    C    0.22638   0.55592   0.35438   1.000
    C578    C    0.20213   0.56881   0.35111   1.000
    O579    O    0.46103   0.50214   0.42559   1.000
    O580    O    0.36883   0.52525   0.33327   1.000
    O581    O    0.44352   0.48477   0.40801   1.000
    O582    O    0.38370   0.49673   0.30637   1.000
    O583    O    0.31969   0.47176   0.36082   1.000
    O584    O    0.25626   0.64681   0.14341   1.000
    O585    O    0.28098   0.64670   0.09285   1.000
    O586    O    0.28390   0.67277   0.13396   1.000
    O587    O    0.32149   0.65000   0.14205   1.000
    O588    O    0.24927   0.74940   0.20797   1.000
    O589    O    0.28867   0.72771   0.21218   1.000
    O590    O    0.33926   0.56556   0.30379   1.000
    O591    O    0.29346   0.70249   0.25801   1.000
    O592    O    0.29016   0.51111   0.33112   1.000
    O593    O    0.35332   0.53657   0.27746   1.000
    O594    O    0.30855   0.67227   0.08410   1.000
    O595    O    0.33907   0.59943   0.15737   1.000
    H596    H    0.47622   0.53902   0.40729   1.000
    H597    H    0.40917   0.51532   0.34037   1.000
    H598    H    0.43529   0.50073   0.36649   1.000
    H599    H    0.38695   0.42554   0.32174   1.000
    H600    H    0.43236   0.47131   0.29999   1.000
    H601    H    0.21061   0.66698   0.17176   1.000
    H602    H    0.23842   0.58290   0.19950   1.000
    H603    H    0.25374   0.70849   0.15579   1.000
    H604    H    0.24241   0.73557   0.17998   1.000
    H605    H    0.32917   0.66698   0.16567   1.000
    H606    H    0.31797   0.69394   0.18961   1.000
    H607    H    0.34107   0.61090   0.27242   1.000
    H608    H    0.32549   0.65835   0.25665   1.000
    H609    H    0.25730   0.52408   0.31059   1.000
    H610    H    0.21452   0.54690   0.30483   1.000
    H611    H    0.22928   0.55895   0.36814   1.000
    H612    H    0.18711   0.58131   0.36260   1.000
    Cr613   Cr   0.11423   0.94423   0.28384   1.000
    Cr614   Cr   0.30656   0.80348   0.35963   1.000
    C615    C    0.42240   0.56944   0.46092   1.000
    C616    C    0.36102   0.72696   0.39955   1.000
    C617    C    0.37603   0.70539   0.41455   1.000
    C618    C    0.31679   0.85054   0.40521   1.000
    C619    C    0.31227   0.83063   0.38220   1.000
    C620    C    0.31089   0.83104   0.40641   1.000
    C621    C    0.30458   0.81170   0.43068   1.000
    C622    C    0.18594   0.95726   0.20837   1.000
    C623    C    0.15936   0.96258   0.25305   1.000
    C624    C    0.18218   0.96494   0.22795   1.000
    C625    C    0.20145   0.97322   0.22390   1.000
    C626    C    0.16297   0.86389   0.26799   1.000
    C627    C    0.14404   0.88804   0.29961   1.000
    C628    C    0.15870   0.86360   0.29240   1.000
    C629    C    0.17681   0.84085   0.26152   1.000
    C630    C    0.20310   0.79230   0.27199   1.000
    C631    C    0.18675   0.81672   0.27927   1.000
    C632    C    0.16851   0.83943   0.31016   1.000
    C633    C    0.18222   0.81647   0.30374   1.000
    C634    C    0.28425   0.77212   0.32264   1.000
    C635    C    0.27520   0.76276   0.31363   1.000
    C636    C    0.32224   0.89950   0.24194   1.000
    C637    C    0.34166   0.85700   0.27304   1.000
    C638    C    0.33972   0.87369   0.24672   1.000
    C639    C    0.31889   0.91423   0.21750   1.000
    C640    C    0.07796   0.92138   0.33257   1.000
    C641    C    0.33299   0.90339   0.19747   1.000
    C642    C    0.35438   0.86331   0.22638   1.000
    C643    C    0.35111   0.87794   0.20213   1.000
    O644    O    0.42559   0.61124   0.46103   1.000
    O645    O    0.33327   0.77265   0.36883   1.000
    O646    O    0.40801   0.66370   0.44352   1.000
    O647    O    0.30637   0.81320   0.38370   1.000
    O648    O    0.36082   0.84773   0.31969   1.000
    O649    O    0.14341   0.95352   0.25626   1.000
    O650    O    0.09285   0.97946   0.28098   1.000
    O651    O    0.13396   0.90937   0.28390   1.000
    O652    O    0.14205   0.88647   0.32149   1.000
    O653    O    0.20797   0.79336   0.24927   1.000
    O654    O    0.21218   0.77143   0.28867   1.000
    O655    O    0.30379   0.79140   0.33926   1.000
    O656    O    0.25801   0.74604   0.29346   1.000
    O657    O    0.33112   0.86762   0.29016   1.000
    O658    O    0.27746   0.83264   0.35332   1.000
    O659    O    0.08410   0.93508   0.30855   1.000
    O660    O    0.15737   0.90414   0.33907   1.000
    H661    H    0.40729   0.57747   0.47622   1.000
    H662    H    0.34037   0.73515   0.40917   1.000
    H663    H    0.36649   0.69749   0.43529   1.000
    H664    H    0.32174   0.86577   0.38695   1.000
    H665    H    0.29999   0.79634   0.43236   1.000
    H666    H    0.17176   0.95064   0.21061   1.000
    H667    H    0.19950   0.97918   0.23842   1.000
    H668    H    0.15579   0.88199   0.25374   1.000
    H669    H    0.17998   0.84203   0.24241   1.000
    H670    H    0.16567   0.83819   0.32917   1.000
    H671    H    0.18961   0.79849   0.31797   1.000
    H672    H    0.27242   0.77561   0.34107   1.000
    H673    H    0.25665   0.75951   0.32549   1.000
    H674    H    0.31059   0.90802   0.25730   1.000
    H675    H    0.30483   0.93376   0.21452   1.000
    H676    H    0.36814   0.84363   0.22928   1.000
    H677    H    0.36260   0.86898   0.18711   1.000
    Cr678   Cr   0.94423   0.11423   0.65770   1.000
    Cr679   Cr   0.80348   0.30656   0.53034   1.000
    C680    C    0.56944   0.42240   0.54723   1.000
    C681    C    0.72696   0.36102   0.51247   1.000
    C682    C    0.70539   0.37603   0.50403   1.000
    C683    C    0.85054   0.31679   0.42746   1.000
    C684    C    0.83063   0.31227   0.47489   1.000
    C685    C    0.83104   0.31089   0.45167   1.000
    C686    C    0.81170   0.30458   0.45304   1.000
    C687    C    0.95726   0.18594   0.64843   1.000
    C688    C    0.96258   0.15936   0.62501   1.000
    C689    C    0.96494   0.18218   0.62494   1.000
    C690    C    0.97322   0.20145   0.60143   1.000
    C691    C    0.86389   0.16297   0.70516   1.000
    C692    C    0.88804   0.14404   0.66831   1.000
    C693    C    0.86360   0.15870   0.68530   1.000
    C694    C    0.84085   0.17681   0.72083   1.000
    C695    C    0.79230   0.20310   0.73261   1.000
    C696    C    0.81672   0.18675   0.71726   1.000
    C697    C    0.83943   0.16851   0.68190   1.000
    C698    C    0.81647   0.18222   0.69757   1.000
    C699    C    0.77212   0.28425   0.62099   1.000
    C700    C    0.76276   0.27520   0.64841   1.000
    C701    C    0.89950   0.32224   0.53632   1.000
    C702    C    0.85700   0.34166   0.52830   1.000
    C703    C    0.87369   0.33972   0.53987   1.000
    C704    C    0.91423   0.31889   0.54938   1.000
    C705    C    0.92138   0.07796   0.66808   1.000
    C706    C    0.90339   0.33299   0.56615   1.000
    C707    C    0.86331   0.35438   0.55592   1.000
    C708    C    0.87794   0.35111   0.56881   1.000
    O709    O    0.61124   0.42559   0.50214   1.000
    O710    O    0.77265   0.33327   0.52525   1.000
    O711    O    0.66370   0.40801   0.48477   1.000
    O712    O    0.81320   0.30637   0.49673   1.000
    O713    O    0.84773   0.36082   0.47176   1.000
    O714    O    0.95352   0.14341   0.64681   1.000
    O715    O    0.97946   0.09285   0.64670   1.000
    O716    O    0.90937   0.13396   0.67277   1.000
    O717    O    0.88647   0.14205   0.65000   1.000
    O718    O    0.79336   0.20797   0.74940   1.000
    O719    O    0.77143   0.21218   0.72771   1.000
    O720    O    0.79140   0.30379   0.56556   1.000
    O721    O    0.74604   0.25801   0.70249   1.000
    O722    O    0.86762   0.33112   0.51111   1.000
    O723    O    0.83264   0.27746   0.53657   1.000
    O724    O    0.93508   0.08410   0.67227   1.000
    O725    O    0.90414   0.15737   0.59943   1.000
    H726    H    0.57747   0.40729   0.53902   1.000
    H727    H    0.73515   0.34037   0.51532   1.000
    H728    H    0.69749   0.36649   0.50073   1.000
    H729    H    0.86577   0.32174   0.42554   1.000
    H730    H    0.79634   0.29999   0.47131   1.000
    H731    H    0.95064   0.17176   0.66698   1.000
    H732    H    0.97918   0.19950   0.58290   1.000
    H733    H    0.88199   0.15579   0.70849   1.000
    H734    H    0.84203   0.17998   0.73557   1.000
    H735    H    0.83819   0.16567   0.66698   1.000
    H736    H    0.79849   0.18961   0.69394   1.000
    H737    H    0.77561   0.27242   0.61090   1.000
    H738    H    0.75951   0.25665   0.65835   1.000
    H739    H    0.90802   0.31059   0.52408   1.000
    H740    H    0.93376   0.30483   0.54690   1.000
    H741    H    0.84363   0.36814   0.55895   1.000
    H742    H    0.86898   0.36260   0.58131   1.000
    Cr743   Cr   0.65770   0.28384   0.94423   1.000
    Cr744   Cr   0.53034   0.35963   0.80348   1.000
    C745    C    0.54723   0.46092   0.56944   1.000
    C746    C    0.51247   0.39955   0.72696   1.000
    C747    C    0.50403   0.41455   0.70539   1.000
    C748    C    0.42746   0.40521   0.85054   1.000
    C749    C    0.47489   0.38220   0.83063   1.000
    C750    C    0.45167   0.40641   0.83104   1.000
    C751    C    0.45304   0.43068   0.81170   1.000
    C752    C    0.64843   0.20837   0.95726   1.000
    C753    C    0.62501   0.25305   0.96258   1.000
    C754    C    0.62494   0.22795   0.96494   1.000
    C755    C    0.60143   0.22390   0.97322   1.000
    C756    C    0.70516   0.26799   0.86389   1.000
    C757    C    0.66831   0.29961   0.88804   1.000
    C758    C    0.68530   0.29240   0.86360   1.000
    C759    C    0.72083   0.26152   0.84085   1.000
    C760    C    0.73261   0.27199   0.79230   1.000
    C761    C    0.71726   0.27927   0.81672   1.000
    C762    C    0.68190   0.31016   0.83943   1.000
    C763    C    0.69757   0.30374   0.81647   1.000
    C764    C    0.62099   0.32264   0.77212   1.000
    C765    C    0.64841   0.31363   0.76276   1.000
    C766    C    0.53632   0.24194   0.89950   1.000
    C767    C    0.52830   0.27304   0.85700   1.000
    C768    C    0.53987   0.24672   0.87369   1.000
    C769    C    0.54938   0.21750   0.91423   1.000
    C770    C    0.66808   0.33257   0.92138   1.000
    C771    C    0.56615   0.19747   0.90339   1.000
    C772    C    0.55592   0.22638   0.86331   1.000
    C773    C    0.56881   0.20213   0.87794   1.000
    O774    O    0.50214   0.46103   0.61124   1.000
    O775    O    0.52525   0.36883   0.77265   1.000
    O776    O    0.48477   0.44352   0.66370   1.000
    O777    O    0.49673   0.38370   0.81320   1.000
    O778    O    0.47176   0.31969   0.84773   1.000
    O779    O    0.64681   0.25626   0.95352   1.000
    O780    O    0.64670   0.28098   0.97946   1.000
    O781    O    0.67277   0.28390   0.90937   1.000
    O782    O    0.65000   0.32149   0.88647   1.000
    O783    O    0.74940   0.24927   0.79336   1.000
    O784    O    0.72771   0.28867   0.77143   1.000
    O785    O    0.56556   0.33926   0.79140   1.000
    O786    O    0.70249   0.29346   0.74604   1.000
    O787    O    0.51111   0.29016   0.86762   1.000
    O788    O    0.53657   0.35332   0.83264   1.000
    O789    O    0.67227   0.30855   0.93508   1.000
    O790    O    0.59943   0.33907   0.90414   1.000
    H791    H    0.53902   0.47622   0.57747   1.000
    H792    H    0.51532   0.40917   0.73515   1.000
    H793    H    0.50073   0.43529   0.69749   1.000
    H794    H    0.42554   0.38695   0.86577   1.000
    H795    H    0.47131   0.43236   0.79634   1.000
    H796    H    0.66698   0.21061   0.95064   1.000
    H797    H    0.58290   0.23842   0.97918   1.000
    H798    H    0.70849   0.25374   0.88199   1.000
    H799    H    0.73557   0.24241   0.84203   1.000
    H800    H    0.66698   0.32917   0.83819   1.000
    H801    H    0.69394   0.31797   0.79849   1.000
    H802    H    0.61090   0.34107   0.77561   1.000
    H803    H    0.65835   0.32549   0.75951   1.000
    H804    H    0.52408   0.25730   0.90802   1.000
    H805    H    0.54690   0.21452   0.93376   1.000
    H806    H    0.55895   0.22928   0.84363   1.000
    H807    H    0.58131   0.18711   0.86898   1.000
    Cr808   Cr   0.13577   0.96616   0.30577   1.000
    Cr809   Cr   0.94344   0.89037   0.44652   1.000
    C810    C    0.82760   0.78908   0.68056   1.000
    C811    C    0.88898   0.85045   0.52304   1.000
    C812    C    0.87397   0.83545   0.54461   1.000
    C813    C    0.93321   0.84479   0.39946   1.000
    C814    C    0.93773   0.86780   0.41937   1.000
    C815    C    0.93911   0.84359   0.41896   1.000
    C816    C    0.94542   0.81932   0.43830   1.000
    C817    C    0.06406   0.04163   0.29274   1.000
    C818    C    0.09064   0.99695   0.28742   1.000
    C819    C    0.06782   0.02205   0.28506   1.000
    C820    C    0.04855   0.02610   0.27678   1.000
    C821    C    0.91028   0.00328   0.71013   1.000
    C822    C    0.93111   0.03250   0.70062   1.000
    C823    C    0.17204   0.91743   0.58192   1.000
    C824    C    0.91701   0.05253   0.68385   1.000
    C825    C    0.89562   0.02362   0.69408   1.000
    C826    C    0.89889   0.04787   0.68119   1.000
    O827    O    0.82441   0.78897   0.74786   1.000
    O828    O    0.91673   0.88117   0.72475   1.000
    O829    O    0.84199   0.80648   0.76523   1.000
    O830    O    0.94363   0.86630   0.75327   1.000
    O831    O    0.88918   0.93031   0.77824   1.000
    O832    O    0.10659   0.99374   0.60319   1.000
    O833    O    0.15715   0.96902   0.60330   1.000
    O834    O    0.11604   0.96610   0.57723   1.000
    O835    O    0.10795   0.92851   0.60000   1.000
    O836    O    0.04203   0.00073   0.50060   1.000
    O837    O    0.03782   0.96133   0.52229   1.000
    O838    O    0.94621   0.91074   0.68444   1.000
    O839    O    0.99199   0.95654   0.54751   1.000
    O840    O    0.91888   0.95984   0.73889   1.000
    O841    O    0.97254   0.89668   0.71343   1.000
    O842    O    0.16590   0.94145   0.57773   1.000
    O843    O    0.09263   0.91093   0.65057   1.000
    H844    H    0.84271   0.77378   0.71098   1.000
    C845    C    0.91028   0.00328   0.37631   1.000
    C846    C    0.93111   0.03250   0.33577   1.000
    C847    C    0.17204   0.91743   0.32862   1.000
    C848    C    0.91701   0.05253   0.34661   1.000
    C849    C    0.89562   0.02362   0.38669   1.000
    C850    C    0.89889   0.04787   0.37206   1.000
    O851    O    0.82441   0.78897   0.63876   1.000
    O852    O    0.91673   0.88117   0.47735   1.000
    O853    O    0.84199   0.80648   0.58630   1.000
    O854    O    0.94363   0.86630   0.43680   1.000
    O855    O    0.88918   0.93031   0.40227   1.000
    O856    O    0.10659   0.99374   0.29648   1.000
    O857    O    0.15715   0.96902   0.27054   1.000
    O858    O    0.11604   0.96610   0.34063   1.000
    O859    O    0.10795   0.92851   0.36353   1.000
    O860    O    0.04203   0.00073   0.45664   1.000
    O861    O    0.03782   0.96133   0.47857   1.000
    O862    O    0.94621   0.91074   0.45860   1.000
    O863    O    0.99199   0.95654   0.50396   1.000
    O864    O    0.91888   0.95984   0.38238   1.000
    O865    O    0.97254   0.89668   0.41736   1.000
    O866    O    0.16590   0.94145   0.31492   1.000
    O867    O    0.09263   0.91093   0.34586   1.000
    H868    H    0.84271   0.77378   0.67253   1.000
    H869    H    0.90963   0.84083   0.51485   1.000
    H870    H    0.88351   0.81471   0.55251   1.000
    H871    H    0.92826   0.86305   0.38423   1.000
    H872    H    0.95001   0.81764   0.45366   1.000
    H873    H    0.07824   0.03939   0.29936   1.000
    H874    H    0.05050   0.01158   0.27082   1.000
    H875    H    0.09421   0.99626   0.36801   1.000
    H876    H    0.07002   0.00759   0.40797   1.000
    H877    H    0.08433   0.92083   0.41181   1.000
    H878    H    0.06039   0.93203   0.45151   1.000
    H879    H    0.97758   0.90893   0.47439   1.000
    H880    H    0.99335   0.92451   0.49049   1.000
    H881    H    0.93941   0.99270   0.34198   1.000
    H882    H    0.94517   0.03548   0.31624   1.000
    H883    H    0.88186   0.02072   0.40637   1.000
    H884    H    0.88740   0.06289   0.38102   1.000
    Cr885   Cr   0.96616   0.13577   0.59230   1.000
    Cr886   Cr   0.89037   0.94344   0.71966   1.000
    C887    C    0.78908   0.82760   0.70277   1.000
    C888    C    0.85045   0.88898   0.73753   1.000
    C889    C    0.83545   0.87397   0.74597   1.000
    C890    C    0.84479   0.93321   0.82254   1.000
    C891    C    0.86780   0.93773   0.77511   1.000
    C892    C    0.84359   0.93911   0.79833   1.000
    C893    C    0.81932   0.94542   0.79696   1.000
    C894    C    0.04163   0.06406   0.60157   1.000
    C895    C    0.99695   0.09064   0.62499   1.000
    C896    C    0.02205   0.06782   0.62506   1.000
    C897    C    0.02610   0.04855   0.64857   1.000
    C898    C    0.98201   0.08703   0.54484   1.000
    C899    C    0.95039   0.10596   0.58169   1.000
    C900    C    0.95760   0.09130   0.56470   1.000
    C901    C    0.98848   0.07319   0.52917   1.000
    C902    C    0.97801   0.04690   0.51739   1.000
    C903    C    0.97073   0.06325   0.53274   1.000
    C904    C    0.93984   0.08149   0.56810   1.000
    C905    C    0.94626   0.06778   0.55243   1.000
    C906    C    0.92736   0.96575   0.62901   1.000
    C907    C    0.93637   0.97480   0.60159   1.000
    C908    C    0.00806   0.92776   0.71368   1.000
    C909    C    0.97696   0.90834   0.72170   1.000
    C910    C    0.00328   0.91028   0.71013   1.000
    C911    C    0.03250   0.93111   0.70062   1.000
    C912    C    0.91743   0.17204   0.58192   1.000
    C913    C    0.05253   0.91701   0.68385   1.000
    C914    C    0.02362   0.89562   0.69408   1.000
    C915    C    0.04787   0.89889   0.68119   1.000
    O916    O    0.78897   0.82441   0.74786   1.000
    O917    O    0.88117   0.91673   0.72475   1.000
    O918    O    0.80648   0.84199   0.76523   1.000
    O919    O    0.86630   0.94363   0.75327   1.000
    O920    O    0.93031   0.88918   0.77824   1.000
    O921    O    0.99374   0.10659   0.60319   1.000
    O922    O    0.96902   0.15715   0.60330   1.000
    O923    O    0.96610   0.11604   0.57723   1.000
    O924    O    0.92851   0.10795   0.60000   1.000
    O925    O    0.00073   0.04203   0.50060   1.000
    O926    O    0.96133   0.03782   0.52229   1.000
    O927    O    0.91074   0.94621   0.68444   1.000
    O928    O    0.95654   0.99199   0.54751   1.000
    O929    O    0.95984   0.91888   0.73889   1.000
    O930    O    0.89668   0.97254   0.71343   1.000
    O931    O    0.94145   0.16590   0.57773   1.000
    O932    O    0.91093   0.09263   0.65057   1.000
    H933    H    0.77378   0.84271   0.71098   1.000
    H934    H    0.84083   0.90963   0.73468   1.000
    H935    H    0.81471   0.88351   0.74927   1.000
    H936    H    0.86305   0.92826   0.82446   1.000
    H937    H    0.81764   0.95001   0.77869   1.000
    H938    H    0.03939   0.07824   0.58302   1.000
    H939    H    0.01158   0.05050   0.66710   1.000
    H940    H    0.99626   0.09421   0.54151   1.000
    H941    H    0.00759   0.07002   0.51443   1.000
    H942    H    0.92083   0.08433   0.58302   1.000
    H943    H    0.93203   0.06039   0.55606   1.000
    H944    H    0.90893   0.97758   0.63910   1.000
    H945    H    0.92451   0.99335   0.59165   1.000
    H946    H    0.99270   0.93941   0.72592   1.000
    H947    H    0.03548   0.94517   0.70310   1.000
    H948    H    0.02072   0.88186   0.69105   1.000
    H949    H    0.06289   0.88740   0.66869   1.000
    Cr950   Cr   0.59230   0.30577   0.96616   1.000
    Cr951   Cr   0.71966   0.44652   0.89037   1.000
    C952    C    0.70277   0.68056   0.78908   1.000
    C953    C    0.73753   0.52304   0.85045   1.000
    C954    C    0.74597   0.54461   0.83545   1.000
    C955    C    0.82254   0.39946   0.84479   1.000
    C956    C    0.77511   0.41937   0.86780   1.000
    C957    C    0.79833   0.41896   0.84359   1.000
    C958    C    0.79696   0.43830   0.81932   1.000
    C959    C    0.60157   0.29274   0.04163   1.000
    C960    C    0.62499   0.28742   0.99695   1.000
    C961    C    0.62506   0.28506   0.02205   1.000
    C962    C    0.64857   0.27678   0.02610   1.000
    C963    C    0.54484   0.38611   0.98201   1.000
    C964    C    0.58169   0.36196   0.95039   1.000
    C965    C    0.56470   0.38640   0.95760   1.000
    C966    C    0.52917   0.40915   0.98848   1.000
    C967    C    0.51739   0.45770   0.97801   1.000
    C968    C    0.53274   0.43328   0.97073   1.000
    C969    C    0.56810   0.41057   0.93984   1.000
    C970    C    0.55243   0.43353   0.94626   1.000
    C971    C    0.62901   0.47788   0.92736   1.000
    C972    C    0.60159   0.48724   0.93637   1.000
    C973    C    0.71368   0.35050   0.00806   1.000
    C974    C    0.72170   0.39300   0.97696   1.000
    C975    C    0.71013   0.37631   0.00328   1.000
    C976    C    0.70062   0.33577   0.03250   1.000
    C977    C    0.58192   0.32862   0.91743   1.000
    C978    C    0.68385   0.34661   0.05253   1.000
    C979    C    0.69408   0.38669   0.02362   1.000
    C980    C    0.68119   0.37206   0.04787   1.000
    O981    O    0.74786   0.63876   0.78897   1.000
    O982    O    0.72475   0.47735   0.88117   1.000
    O983    O    0.76523   0.58630   0.80648   1.000
    O984    O    0.75327   0.43680   0.86630   1.000
    O985    O    0.77824   0.40227   0.93031   1.000
    O986    O    0.60319   0.29648   0.99374   1.000
    O987    O    0.60330   0.27054   0.96902   1.000
    O988    O    0.57723   0.34063   0.96610   1.000
    O989    O    0.60000   0.36353   0.92851   1.000
    O990    O    0.50060   0.45664   0.00073   1.000
    O991    O    0.52229   0.47857   0.96133   1.000
    O992    O    0.68444   0.45860   0.91074   1.000
    O993    O    0.54751   0.50396   0.95654   1.000
    O994    O    0.73889   0.38238   0.95984   1.000
    O995    O    0.71343   0.41736   0.89668   1.000
    O996    O    0.57773   0.31492   0.94145   1.000
    O997    O    0.65057   0.34586   0.91093   1.000
    H998    H    0.71098   0.67253   0.77378   1.000
    H999    H    0.73468   0.51485   0.84083   1.000
    H1000   H    0.74927   0.55251   0.81471   1.000
    H1001   H    0.82446   0.38423   0.86305   1.000
    H1002   H    0.77869   0.45366   0.81764   1.000
    H1003   H    0.58302   0.29936   0.03939   1.000
    H1004   H    0.66710   0.27082   0.01158   1.000
    H1005   H    0.54151   0.36801   0.99626   1.000
    H1006   H    0.51443   0.40797   0.00759   1.000
    H1007   H    0.58302   0.41181   0.92083   1.000
    H1008   H    0.55606   0.45151   0.93203   1.000
    H1009   H    0.63910   0.47439   0.90893   1.000
    H1010   H    0.59165   0.49049   0.92451   1.000
    H1011   H    0.72592   0.34198   0.99270   1.000
    H1012   H    0.70310   0.31624   0.03548   1.000
    H1013   H    0.69105   0.40637   0.02072   1.000
    H1014   H    0.66869   0.38102   0.06289   1.000
    Cr1015  Cr   0.30577   0.59230   0.13577   1.000
    Cr1016  Cr   0.44652   0.71966   0.94344   1.000
    C1017   C    0.68056   0.70277   0.82760   1.000
    C1018   C    0.52304   0.73753   0.88898   1.000
    C1019   C    0.54461   0.74597   0.87397   1.000
    C1020   C    0.39946   0.82254   0.93321   1.000
    C1021   C    0.41937   0.77511   0.93773   1.000
    C1022   C    0.41896   0.79833   0.93911   1.000
    C1023   C    0.43830   0.79696   0.94542   1.000
    C1024   C    0.29274   0.60157   0.06406   1.000
    C1025   C    0.28742   0.62499   0.09064   1.000
    C1026   C    0.28506   0.62506   0.06782   1.000
    C1027   C    0.27678   0.64857   0.04855   1.000
    C1028   C    0.38611   0.54484   0.08703   1.000
    C1029   C    0.36196   0.58169   0.10596   1.000
    C1030   C    0.38640   0.56470   0.09130   1.000
    C1031   C    0.40915   0.52917   0.07319   1.000
    C1032   C    0.45770   0.51739   0.04690   1.000
    C1033   C    0.43328   0.53274   0.06325   1.000
    C1034   C    0.41057   0.56810   0.08149   1.000
    C1035   C    0.43353   0.55243   0.06778   1.000
    C1036   C    0.47788   0.62901   0.96575   1.000
    C1037   C    0.48724   0.60159   0.97480   1.000
    C1038   C    0.35050   0.71368   0.92776   1.000
    C1039   C    0.39300   0.72170   0.90834   1.000
    C1040   C    0.37631   0.71013   0.91028   1.000
    C1041   C    0.33577   0.70062   0.93111   1.000
    C1042   C    0.32862   0.58192   0.17204   1.000
    C1043   C    0.34661   0.68385   0.91701   1.000
    C1044   C    0.38669   0.69408   0.89562   1.000
    C1045   C    0.37206   0.68119   0.89889   1.000
    O1046   O    0.63876   0.74786   0.82441   1.000
    O1047   O    0.47735   0.72475   0.91673   1.000
    O1048   O    0.58630   0.76523   0.84199   1.000
    O1049   O    0.43680   0.75327   0.94363   1.000
    O1050   O    0.40227   0.77824   0.88918   1.000
    O1051   O    0.29648   0.60319   0.10659   1.000
    O1052   O    0.27054   0.60330   0.15715   1.000
    O1053   O    0.34063   0.57723   0.11604   1.000
    O1054   O    0.36353   0.60000   0.10795   1.000
    O1055   O    0.45664   0.50060   0.04203   1.000
    O1056   O    0.47857   0.52229   0.03782   1.000
    O1057   O    0.45860   0.68444   0.94621   1.000
    O1058   O    0.50396   0.54751   0.99199   1.000
    O1059   O    0.38238   0.73889   0.91888   1.000
    O1060   O    0.41736   0.71343   0.97254   1.000
    O1061   O    0.31492   0.57773   0.16590   1.000
    O1062   O    0.34586   0.65057   0.09263   1.000
    H1063   H    0.67253   0.71098   0.84271   1.000
    O1064   O    0.80648   0.58630   0.76523   1.000
    O1065   O    0.86630   0.43680   0.75327   1.000
    O1066   O    0.93031   0.40227   0.77824   1.000
    O1067   O    0.99374   0.29648   0.60319   1.000
    O1068   O    0.96902   0.27054   0.60330   1.000
    O1069   O    0.96610   0.34063   0.57723   1.000
    O1070   O    0.92851   0.36353   0.60000   1.000
    O1071   O    0.00073   0.45664   0.50060   1.000
    O1072   O    0.96133   0.47857   0.52229   1.000
    O1073   O    0.91074   0.45860   0.68444   1.000
    O1074   O    0.95654   0.50396   0.54751   1.000
    O1075   O    0.95984   0.38238   0.73889   1.000
    O1076   O    0.89668   0.41736   0.71343   1.000
    O1077   O    0.94145   0.31492   0.57773   1.000
    O1078   O    0.91093   0.34586   0.65057   1.000
    H1079   H    0.77378   0.67253   0.71098   1.000
    H1080   H    0.84083   0.51485   0.73468   1.000
    H1081   H    0.81471   0.55251   0.74927   1.000
    H1082   H    0.86305   0.38423   0.82446   1.000
    H1083   H    0.81764   0.45366   0.77869   1.000
    H1084   H    0.03939   0.29936   0.58302   1.000
    H1085   H    0.01158   0.27082   0.66710   1.000
    H1086   H    0.99626   0.36801   0.54151   1.000
    H1087   H    0.00759   0.40797   0.51443   1.000
    H1088   H    0.92083   0.41181   0.58302   1.000
    H1089   H    0.93203   0.45151   0.55606   1.000
    H1090   H    0.90893   0.47439   0.63910   1.000
    H1091   H    0.92451   0.49049   0.59165   1.000
    H1092   H    0.99270   0.34198   0.72592   1.000
    H1093   H    0.03548   0.31624   0.70310   1.000
    H1094   H    0.02072   0.40637   0.69105   1.000
    H1095   H    0.06289   0.38102   0.66869   1.000
    Cr1096  Cr   0.59230   0.13577   0.30577   1.000
    Cr1097  Cr   0.71966   0.94344   0.44652   1.000
    C1098   C    0.70277   0.82760   0.68056   1.000
    C1099   C    0.73753   0.88898   0.52304   1.000
    C1100   C    0.74597   0.87397   0.54461   1.000
    C1101   C    0.82254   0.93321   0.39946   1.000
    C1102   C    0.77511   0.93773   0.41937   1.000
    C1103   C    0.79833   0.93911   0.41896   1.000
    C1104   C    0.79696   0.94542   0.43830   1.000
    C1105   C    0.60157   0.06406   0.29274   1.000
    C1106   C    0.62499   0.09064   0.28742   1.000
    C1107   C    0.62506   0.06782   0.28506   1.000
    C1108   C    0.64857   0.04855   0.27678   1.000
    C1109   C    0.54484   0.08703   0.38611   1.000
    C1110   C    0.58169   0.10596   0.36196   1.000
    C1111   C    0.56470   0.09130   0.38640   1.000
    C1112   C    0.52917   0.07319   0.40915   1.000
    C1113   C    0.51739   0.04690   0.45770   1.000
    C1114   C    0.53274   0.06325   0.43328   1.000
    C1115   C    0.56810   0.08149   0.41057   1.000
    C1116   C    0.55243   0.06778   0.43353   1.000
    C1117   C    0.62901   0.96575   0.47788   1.000
    C1118   C    0.60159   0.97480   0.48724   1.000
    C1119   C    0.71368   0.92776   0.35050   1.000
    C1120   C    0.72170   0.90834   0.39300   1.000
    C1121   C    0.71013   0.91028   0.37631   1.000
    C1122   C    0.70062   0.93111   0.33577   1.000
    C1123   C    0.58192   0.17204   0.32862   1.000
    C1124   C    0.68385   0.91701   0.34661   1.000
    C1125   C    0.69408   0.89562   0.38669   1.000
    C1126   C    0.68119   0.89889   0.37206   1.000
    O1127   O    0.74786   0.82441   0.63876   1.000
    O1128   O    0.72475   0.91673   0.47735   1.000
    O1129   O    0.76523   0.84199   0.58630   1.000
    O1130   O    0.75327   0.94363   0.43680   1.000
    O1131   O    0.77824   0.88918   0.40227   1.000
    O1132   O    0.60319   0.10659   0.29648   1.000
    O1133   O    0.60330   0.15715   0.27054   1.000
    O1134   O    0.57723   0.11604   0.34063   1.000
    O1135   O    0.60000   0.10795   0.36353   1.000
    O1136   O    0.50060   0.04203   0.45664   1.000
    O1137   O    0.52229   0.03782   0.47857   1.000
    O1138   O    0.68444   0.94621   0.45860   1.000
    O1139   O    0.54751   0.99199   0.50396   1.000
    O1140   O    0.73889   0.91888   0.38238   1.000
    O1141   O    0.71343   0.97254   0.41736   1.000
    O1142   O    0.57773   0.16590   0.31492   1.000
    O1143   O    0.65057   0.09263   0.34586   1.000
    H1144   H    0.71098   0.84271   0.67253   1.000
    H1145   H    0.73468   0.90963   0.51485   1.000
    H1146   H    0.74927   0.88351   0.55251   1.000
    H1147   H    0.82446   0.92826   0.38423   1.000
    H1148   H    0.77869   0.95001   0.45366   1.000
    H1149   H    0.58302   0.07824   0.29936   1.000
    H1150   H    0.66710   0.05050   0.27082   1.000
    H1151   H    0.54151   0.09421   0.36801   1.000
    H1152   H    0.51443   0.07002   0.40797   1.000
    H1153   H    0.58302   0.08433   0.41181   1.000
    H1154   H    0.55606   0.06039   0.45151   1.000
    H1155   H    0.63910   0.97758   0.47439   1.000
    H1156   H    0.59165   0.99335   0.49049   1.000
    H1157   H    0.72592   0.93941   0.34198   1.000
    H1158   H    0.70310   0.94517   0.31624   1.000
    H1159   H    0.69105   0.88186   0.40637   1.000
    H1160   H    0.66869   0.88740   0.38102   1.000
    Cr1161  Cr   0.30577   0.96616   0.59230   1.000
    Cr1162  Cr   0.44652   0.89037   0.71966   1.000
    C1163   C    0.68056   0.78908   0.70277   1.000
    C1164   C    0.52304   0.85045   0.73753   1.000
    C1165   C    0.54461   0.83545   0.74597   1.000
    C1166   C    0.39946   0.84479   0.82254   1.000
    C1167   C    0.41937   0.86780   0.77511   1.000
    C1168   C    0.41896   0.84359   0.79833   1.000
    C1169   C    0.43830   0.81932   0.79696   1.000
    C1170   C    0.29274   0.04163   0.60157   1.000
    C1171   C    0.28742   0.99695   0.62499   1.000
    C1172   C    0.28506   0.02205   0.62506   1.000
    C1173   C    0.27678   0.02610   0.64857   1.000
    C1174   C    0.38611   0.98201   0.54484   1.000
    C1175   C    0.36196   0.95039   0.58169   1.000
    C1176   C    0.38640   0.95760   0.56470   1.000
    C1177   C    0.40915   0.98848   0.52917   1.000
    C1178   C    0.45770   0.97801   0.51739   1.000
    C1179   C    0.43328   0.97073   0.53274   1.000
    C1180   C    0.41057   0.93984   0.56810   1.000
    C1181   C    0.43353   0.94626   0.55243   1.000
    C1182   C    0.47788   0.92736   0.62901   1.000
    C1183   C    0.48724   0.93637   0.60159   1.000
    C1184   C    0.35050   0.00806   0.71368   1.000
    C1185   C    0.39300   0.97696   0.72170   1.000
    C1186   C    0.37631   0.00328   0.71013   1.000
    C1187   C    0.33577   0.03250   0.70062   1.000
    C1188   C    0.32862   0.91743   0.58192   1.000
    C1189   C    0.34661   0.05253   0.68385   1.000
    C1190   C    0.38669   0.02362   0.69408   1.000
    C1191   C    0.37206   0.04787   0.68119   1.000
    O1192   O    0.63876   0.78897   0.74786   1.000
    O1193   O    0.47735   0.88117   0.72475   1.000
    O1194   O    0.58630   0.80648   0.76523   1.000
    O1195   O    0.43680   0.86630   0.75327   1.000
    O1196   O    0.40227   0.93031   0.77824   1.000
    O1197   O    0.29648   0.99374   0.60319   1.000
    O1198   O    0.27054   0.96902   0.60330   1.000
    O1199   O    0.34063   0.96610   0.57723   1.000
    O1200   O    0.36353   0.92851   0.60000   1.000
    O1201   O    0.45664   0.00073   0.50060   1.000
    O1202   O    0.47857   0.96133   0.52229   1.000
    O1203   O    0.45860   0.91074   0.68444   1.000
    O1204   O    0.50396   0.95654   0.54751   1.000
    O1205   O    0.38238   0.95984   0.73889   1.000
    O1206   O    0.41736   0.89668   0.71343   1.000
    O1207   O    0.31492   0.94145   0.57773   1.000
    O1208   O    0.34586   0.91093   0.65057   1.000
    H1209   H    0.67253   0.77378   0.71098   1.000
    H1210   H    0.51485   0.84083   0.73468   1.000
    H1211   H    0.55251   0.81471   0.74927   1.000
    H1212   H    0.38423   0.86305   0.82446   1.000
    H1213   H    0.45366   0.81764   0.77869   1.000
    H1214   H    0.29936   0.03939   0.58302   1.000
    H1215   H    0.27082   0.01158   0.66710   1.000
    H1216   H    0.36801   0.99626   0.54151   1.000
    H1217   H    0.40797   0.00759   0.51443   1.000
    H1218   H    0.41181   0.92083   0.58302   1.000
    H1219   H    0.45151   0.93203   0.55606   1.000
    H1220   H    0.47439   0.90893   0.63910   1.000
    H1221   H    0.49049   0.92451   0.59165   1.000
    H1222   H    0.34198   0.99270   0.72592   1.000
    H1223   H    0.31624   0.03548   0.70310   1.000
    H1224   H    0.40637   0.02072   0.69105   1.000
    H1225   H    0.38102   0.06289   0.66869   1.000
    Cr1226  Cr   0.13577   0.59230   0.96616   1.000
    Cr1227  Cr   0.94344   0.71966   0.89037   1.000
    C1228   C    0.82760   0.70277   0.78908   1.000
    C1229   C    0.88898   0.73753   0.85045   1.000
    C1230   C    0.87397   0.74597   0.83545   1.000
    C1231   C    0.93321   0.82254   0.84479   1.000
    C1232   C    0.93773   0.77511   0.86780   1.000
    C1233   C    0.93911   0.79833   0.84359   1.000
    C1234   C    0.94542   0.79696   0.81932   1.000
    C1235   C    0.06406   0.60157   0.04163   1.000
    C1236   C    0.09064   0.62499   0.99695   1.000
    C1237   C    0.06782   0.62506   0.02205   1.000
    C1238   C    0.04855   0.64857   0.02610   1.000
    C1239   C    0.08703   0.54484   0.98201   1.000
    C1240   C    0.10596   0.58169   0.95039   1.000
    C1241   C    0.09130   0.56470   0.95760   1.000
    C1242   C    0.07319   0.52917   0.98848   1.000
    C1243   C    0.04690   0.51739   0.97801   1.000
    C1244   C    0.06325   0.53274   0.97073   1.000
    C1245   C    0.08149   0.56810   0.93984   1.000
    C1246   C    0.06778   0.55243   0.94626   1.000
    C1247   C    0.96575   0.62901   0.92736   1.000
    C1248   C    0.97480   0.60159   0.93637   1.000
    C1249   C    0.92776   0.71368   0.00806   1.000
    C1250   C    0.90834   0.72170   0.97696   1.000
    C1251   C    0.91028   0.71013   0.00328   1.000
    C1252   C    0.93111   0.70062   0.03250   1.000
    C1253   C    0.17204   0.58192   0.91743   1.000
    C1254   C    0.91701   0.68385   0.05253   1.000
    C1255   C    0.89562   0.69408   0.02362   1.000
    C1256   C    0.89889   0.68119   0.04787   1.000
    O1257   O    0.82441   0.74786   0.78897   1.000
    O1258   O    0.91673   0.72475   0.88117   1.000
    O1259   O    0.84199   0.76523   0.80648   1.000
    O1260   O    0.94363   0.75327   0.86630   1.000
    O1261   O    0.88918   0.77824   0.93031   1.000
    O1262   O    0.10659   0.60319   0.99374   1.000
    O1263   O    0.15715   0.60330   0.96902   1.000
    O1264   O    0.11604   0.57723   0.96610   1.000
    O1265   O    0.10795   0.60000   0.92851   1.000
    O1266   O    0.04203   0.50060   0.00073   1.000
    O1267   O    0.03782   0.52229   0.96133   1.000
    O1268   O    0.94621   0.68444   0.91074   1.000
    O1269   O    0.99199   0.54751   0.95654   1.000
    O1270   O    0.91888   0.73889   0.95984   1.000
    O1271   O    0.97254   0.71343   0.89668   1.000
    O1272   O    0.16590   0.57773   0.94145   1.000
    O1273   O    0.09263   0.65057   0.91093   1.000
    H1274   H    0.84271   0.71098   0.77378   1.000
    H1275   H    0.90963   0.73468   0.84083   1.000
    H1276   H    0.88351   0.74927   0.81471   1.000
    H1277   H    0.92826   0.82446   0.86305   1.000
    H1278   H    0.95001   0.77869   0.81764   1.000
    H1279   H    0.07824   0.58302   0.03939   1.000
    H1280   H    0.05050   0.66710   0.01158   1.000
    H1281   H    0.09421   0.54151   0.99626   1.000
    H1282   H    0.07002   0.51443   0.00759   1.000
    H1283   H    0.08433   0.58302   0.92083   1.000
    H1284   H    0.06039   0.55606   0.93203   1.000
    H1285   H    0.97758   0.63910   0.90893   1.000
    H1286   H    0.99335   0.59165   0.92451   1.000
    H1287   H    0.93941   0.72592   0.99270   1.000
    H1288   H    0.94517   0.70310   0.03548   1.000
    H1289   H    0.88186   0.69105   0.02072   1.000
    H1290   H    0.88740   0.66869   0.06289   1.000
    Cr1291  Cr   0.96616   0.30577   0.13577   1.000
    Cr1292  Cr   0.89037   0.44652   0.94344   1.000
    C1293   C    0.78908   0.68056   0.82760   1.000
    C1294   C    0.85045   0.52304   0.88898   1.000
    C1295   C    0.83545   0.54461   0.87397   1.000
    C1296   C    0.84479   0.39946   0.93321   1.000
    C1297   C    0.86780   0.41937   0.93773   1.000
    C1298   C    0.84359   0.41896   0.93911   1.000
    C1299   C    0.81932   0.43830   0.94542   1.000
    C1300   C    0.04163   0.29274   0.06406   1.000
    C1301   C    0.99695   0.28742   0.09064   1.000
    C1302   C    0.02205   0.28506   0.06782   1.000
    C1303   C    0.02610   0.27678   0.04855   1.000
    C1304   C    0.98201   0.38611   0.08703   1.000
    C1305   C    0.95039   0.36196   0.10596   1.000
    C1306   C    0.95760   0.38640   0.09130   1.000
    C1307   C    0.98848   0.40915   0.07319   1.000
    C1308   C    0.97801   0.45770   0.04690   1.000
    C1309   C    0.97073   0.43328   0.06325   1.000
    C1310   C    0.93984   0.41057   0.08149   1.000
    C1311   C    0.94626   0.43353   0.06778   1.000
    C1312   C    0.92736   0.47788   0.96575   1.000
    C1313   C    0.93637   0.48724   0.97480   1.000
    C1314   C    0.00806   0.35050   0.92776   1.000
    C1315   C    0.97696   0.39300   0.90834   1.000
    C1316   C    0.00328   0.37631   0.91028   1.000
    C1317   C    0.03250   0.33577   0.93111   1.000
    C1318   C    0.91743   0.32862   0.17204   1.000
    C1319   C    0.05253   0.34661   0.91701   1.000
    C1320   C    0.02362   0.38669   0.89562   1.000
    C1321   C    0.04787   0.37206   0.89889   1.000
    O1322   O    0.78897   0.63876   0.82441   1.000
    O1323   O    0.88117   0.47735   0.91673   1.000
    O1324   O    0.80648   0.58630   0.84199   1.000
    O1325   O    0.86630   0.43680   0.94363   1.000
    O1326   O    0.93031   0.40227   0.88918   1.000
    O1327   O    0.99374   0.29648   0.10659   1.000
    O1328   O    0.96902   0.27054   0.15715   1.000
    O1329   O    0.96610   0.34063   0.11604   1.000
    O1330   O    0.92851   0.36353   0.10795   1.000
    O1331   O    0.00073   0.45664   0.04203   1.000
    O1332   O    0.96133   0.47857   0.03782   1.000
    O1333   O    0.91074   0.45860   0.94621   1.000
    O1334   O    0.95654   0.50396   0.99199   1.000
    O1335   O    0.95984   0.38238   0.91888   1.000
    O1336   O    0.89668   0.41736   0.97254   1.000
    O1337   O    0.94145   0.31492   0.16590   1.000
    O1338   O    0.91093   0.34586   0.09263   1.000
    H1339   H    0.77378   0.67253   0.84271   1.000
    H1340   H    0.84083   0.51485   0.90963   1.000
    H1341   H    0.81471   0.55251   0.88351   1.000
    H1342   H    0.86305   0.38423   0.92826   1.000
    H1343   H    0.81764   0.45366   0.95001   1.000
    H1344   H    0.03939   0.29936   0.07824   1.000
    H1345   H    0.01158   0.27082   0.05050   1.000
    H1346   H    0.99626   0.36801   0.09421   1.000
    H1347   H    0.00759   0.40797   0.07002   1.000
    H1348   H    0.92083   0.41181   0.08433   1.000
    H1349   H    0.93203   0.45151   0.06039   1.000
    H1350   H    0.90893   0.47439   0.97758   1.000
    H1351   H    0.92451   0.49049   0.99335   1.000
    H1352   H    0.99270   0.34198   0.93941   1.000
    H1353   H    0.03548   0.31624   0.94517   1.000
    H1354   H    0.02072   0.40637   0.88186   1.000
    H1355   H    0.06289   0.38102   0.88740   1.000
    Cr1356  Cr   0.96616   0.59230   0.30577   1.000
    Cr1357  Cr   0.89037   0.71966   0.44652   1.000
    C1358   C    0.78908   0.70277   0.68056   1.000
    C1359   C    0.85045   0.73753   0.52304   1.000
    C1360   C    0.83545   0.74597   0.54461   1.000
    C1361   C    0.84479   0.82254   0.39946   1.000
    C1362   C    0.86780   0.77511   0.41937   1.000
    C1363   C    0.84359   0.79833   0.41896   1.000
    C1364   C    0.81932   0.79696   0.43830   1.000
    C1365   C    0.04163   0.60157   0.29274   1.000
    C1366   C    0.99695   0.62499   0.28742   1.000
    C1367   C    0.02205   0.62506   0.28506   1.000
    C1368   C    0.02610   0.64857   0.27678   1.000
    C1369   C    0.98201   0.54484   0.38611   1.000
    C1370   C    0.95039   0.58169   0.36196   1.000
    C1371   C    0.95760   0.56470   0.38640   1.000
    C1372   C    0.98848   0.52917   0.40915   1.000
    C1373   C    0.97801   0.51739   0.45770   1.000
    C1374   C    0.97073   0.53274   0.43328   1.000
    C1375   C    0.93984   0.56810   0.41057   1.000
    C1376   C    0.94626   0.55243   0.43353   1.000
    C1377   C    0.92736   0.62901   0.47788   1.000
    C1378   C    0.93637   0.60159   0.48724   1.000
    C1379   C    0.00806   0.71368   0.35050   1.000
    C1380   C    0.97696   0.72170   0.39300   1.000
    C1381   C    0.00328   0.71013   0.37631   1.000
    C1382   C    0.03250   0.70062   0.33577   1.000
    C1383   C    0.91743   0.58192   0.32862   1.000
    C1384   C    0.05253   0.68385   0.34661   1.000
    C1385   C    0.02362   0.69408   0.38669   1.000
    C1386   C    0.04787   0.68119   0.37206   1.000
    O1387   O    0.78897   0.74786   0.63876   1.000
    O1388   O    0.88117   0.72475   0.47735   1.000
    O1389   O    0.80648   0.76523   0.58630   1.000
    O1390   O    0.86630   0.75327   0.43680   1.000
    O1391   O    0.93031   0.77824   0.40227   1.000
    O1392   O    0.99374   0.60319   0.29648   1.000
    O1393   O    0.96902   0.60330   0.27054   1.000
    O1394   O    0.96610   0.57723   0.34063   1.000
    O1395   O    0.92851   0.60000   0.36353   1.000
    O1396   O    0.00073   0.50060   0.45664   1.000
    O1397   O    0.96133   0.52229   0.47857   1.000
    O1398   O    0.91074   0.68444   0.45860   1.000
    O1399   O    0.95654   0.54751   0.50396   1.000
    O1400   O    0.95984   0.73889   0.38238   1.000
    O1401   O    0.89668   0.71343   0.41736   1.000
    O1402   O    0.94145   0.57773   0.31492   1.000
    O1403   O    0.91093   0.65057   0.34586   1.000
    H1404   H    0.77378   0.71098   0.67253   1.000
    H1405   H    0.84083   0.73468   0.51485   1.000
    H1406   H    0.81471   0.74927   0.55251   1.000
    H1407   H    0.86305   0.82446   0.38423   1.000
    H1408   H    0.81764   0.77869   0.45366   1.000
    H1409   H    0.03939   0.58302   0.29936   1.000
    H1410   H    0.01158   0.66710   0.27082   1.000
    H1411   H    0.99626   0.54151   0.36801   1.000
    H1412   H    0.00759   0.51443   0.40797   1.000
    H1413   H    0.92083   0.58302   0.41181   1.000
    H1414   H    0.93203   0.55606   0.45151   1.000
    H1415   H    0.90893   0.63910   0.47439   1.000
    H1416   H    0.92451   0.59165   0.49049   1.000
    H1417   H    0.99270   0.72592   0.34198   1.000
    H1418   H    0.03548   0.70310   0.31624   1.000
    H1419   H    0.02072   0.69105   0.40637   1.000
    H1420   H    0.06289   0.66869   0.38102   1.000
    Cr1421  Cr   0.13577   0.30577   0.59230   1.000
    Cr1422  Cr   0.94344   0.44652   0.71966   1.000
    C1423   C    0.82760   0.68056   0.70277   1.000
    C1424   C    0.88898   0.52304   0.73753   1.000
    C1425   C    0.87397   0.54461   0.74597   1.000
    C1426   C    0.93321   0.39946   0.82254   1.000
    C1427   C    0.93773   0.41937   0.77511   1.000
    C1428   C    0.93911   0.41896   0.79833   1.000
    C1429   C    0.94542   0.43830   0.79696   1.000
    C1430   C    0.06406   0.29274   0.60157   1.000
    C1431   C    0.09064   0.28742   0.62499   1.000
    C1432   C    0.06782   0.28506   0.62506   1.000
    C1433   C    0.04855   0.27678   0.64857   1.000
    C1434   C    0.08703   0.38611   0.54484   1.000
    C1435   C    0.10596   0.36196   0.58169   1.000
    C1436   C    0.09130   0.38640   0.56470   1.000
    C1437   C    0.07319   0.40915   0.52917   1.000
    C1438   C    0.04690   0.45770   0.51739   1.000
    C1439   C    0.06325   0.43328   0.53274   1.000
    C1440   C    0.08149   0.41057   0.56810   1.000
    C1441   C    0.06778   0.43353   0.55243   1.000
    C1442   C    0.96575   0.47788   0.62901   1.000
    C1443   C    0.97480   0.48724   0.60159   1.000
    C1444   C    0.92776   0.35050   0.71368   1.000
    C1445   C    0.90834   0.39300   0.72170   1.000
    C1446   C    0.91028   0.37631   0.71013   1.000
    C1447   C    0.93111   0.33577   0.70062   1.000
    C1448   C    0.17204   0.32862   0.58192   1.000
    C1449   C    0.91701   0.34661   0.68385   1.000
    C1450   C    0.89562   0.38669   0.69408   1.000
    C1451   C    0.89889   0.37206   0.68119   1.000
    O1452   O    0.82441   0.63876   0.74786   1.000
    O1453   O    0.91673   0.47735   0.72475   1.000
    O1454   O    0.84199   0.58630   0.76523   1.000
    O1455   O    0.94363   0.43680   0.75327   1.000
    O1456   O    0.88918   0.40227   0.77824   1.000
    O1457   O    0.10659   0.29648   0.60319   1.000
    O1458   O    0.15715   0.27054   0.60330   1.000
    O1459   O    0.11604   0.34063   0.57723   1.000
    O1460   O    0.10795   0.36353   0.60000   1.000
    O1461   O    0.04203   0.45664   0.50060   1.000
    O1462   O    0.03782   0.47857   0.52229   1.000
    O1463   O    0.94621   0.45860   0.68444   1.000
    O1464   O    0.99199   0.50396   0.54751   1.000
    O1465   O    0.91888   0.38238   0.73889   1.000
    O1466   O    0.97254   0.41736   0.71343   1.000
    O1467   O    0.16590   0.31492   0.57773   1.000
    O1468   O    0.09263   0.34586   0.65057   1.000
    H1469   H    0.84271   0.67253   0.71098   1.000
    H1470   H    0.90963   0.51485   0.73468   1.000
    H1471   H    0.88351   0.55251   0.74927   1.000
    H1472   H    0.92826   0.38423   0.82446   1.000
    H1473   H    0.95001   0.45366   0.77869   1.000
    H1474   H    0.07824   0.29936   0.58302   1.000
    H1475   H    0.05050   0.27082   0.66710   1.000
    H1476   H    0.09421   0.36801   0.54151   1.000
    H1477   H    0.07002   0.40797   0.51443   1.000
    H1478   H    0.08433   0.41181   0.58302   1.000
    H1479   H    0.06039   0.45151   0.55606   1.000
    H1480   H    0.97758   0.47439   0.63910   1.000
    H1481   H    0.99335   0.49049   0.59165   1.000
    H1482   H    0.93941   0.34198   0.72592   1.000
    H1483   H    0.94517   0.31624   0.70310   1.000
    H1484   H    0.88186   0.40637   0.69105   1.000
    H1485   H    0.88740   0.38102   0.66869   1.000
    Cr1486  Cr   0.30577   0.13577   0.96616   1.000
    Cr1487  Cr   0.44652   0.94344   0.89037   1.000
    C1488   C    0.68056   0.82760   0.78908   1.000
    C1489   C    0.52304   0.88898   0.85045   1.000
    C1490   C    0.54461   0.87397   0.83545   1.000
    C1491   C    0.39946   0.93321   0.84479   1.000
    C1492   C    0.41937   0.93773   0.86780   1.000
    C1493   C    0.41896   0.93911   0.84359   1.000
    C1494   C    0.43830   0.94542   0.81932   1.000
    C1495   C    0.29274   0.06406   0.04163   1.000
    C1496   C    0.28742   0.09064   0.99695   1.000
    C1497   C    0.28506   0.06782   0.02205   1.000
    C1498   C    0.27678   0.04855   0.02610   1.000
    C1499   C    0.38611   0.08703   0.98201   1.000
    C1500   C    0.36196   0.10596   0.95039   1.000
    C1501   C    0.38640   0.09130   0.95760   1.000
    C1502   C    0.40915   0.07319   0.98848   1.000
    C1503   C    0.45770   0.04690   0.97801   1.000
    C1504   C    0.43328   0.06325   0.97073   1.000
    C1505   C    0.41057   0.08149   0.93984   1.000
    C1506   C    0.43353   0.06778   0.94626   1.000
    C1507   C    0.47788   0.96575   0.92736   1.000
    C1508   C    0.48724   0.97480   0.93637   1.000
    C1509   C    0.35050   0.92776   0.00806   1.000
    C1510   C    0.39300   0.90834   0.97696   1.000
    C1511   C    0.37631   0.91028   0.00328   1.000
    C1512   C    0.33577   0.93111   0.03250   1.000
    C1513   C    0.32862   0.17204   0.91743   1.000
    C1514   C    0.34661   0.91701   0.05253   1.000
    C1515   C    0.38669   0.89562   0.02362   1.000
    C1516   C    0.37206   0.89889   0.04787   1.000
    O1517   O    0.63876   0.82441   0.78897   1.000
    O1518   O    0.47735   0.91673   0.88117   1.000
    O1519   O    0.58630   0.84199   0.80648   1.000
    O1520   O    0.43680   0.94363   0.86630   1.000
    O1521   O    0.40227   0.88918   0.93031   1.000
    O1522   O    0.29648   0.10659   0.99374   1.000
    O1523   O    0.27054   0.15715   0.96902   1.000
    O1524   O    0.34063   0.11604   0.96610   1.000
    O1525   O    0.36353   0.10795   0.92851   1.000
    O1526   O    0.45664   0.04203   0.00073   1.000
    O1527   O    0.47857   0.03782   0.96133   1.000
    O1528   O    0.45860   0.94621   0.91074   1.000
    O1529   O    0.50396   0.99199   0.95654   1.000
    O1530   O    0.38238   0.91888   0.95984   1.000
    O1531   O    0.41736   0.97254   0.89668   1.000
    O1532   O    0.31492   0.16590   0.94145   1.000
    O1533   O    0.34586   0.09263   0.91093   1.000
    H1534   H    0.67253   0.84271   0.77378   1.000
    H1535   H    0.51485   0.90963   0.84083   1.000
    H1536   H    0.55251   0.88351   0.81471   1.000
    H1537   H    0.38423   0.92826   0.86305   1.000
    H1538   H    0.45366   0.95001   0.81764   1.000
    H1539   H    0.29936   0.07824   0.03939   1.000
    H1540   H    0.27082   0.05050   0.01158   1.000
    H1541   H    0.36801   0.09421   0.99626   1.000
    H1542   H    0.40797   0.07002   0.00759   1.000
    H1543   H    0.41181   0.08433   0.92083   1.000
    H1544   H    0.45151   0.06039   0.93203   1.000
    H1545   H    0.47439   0.97758   0.90893   1.000
    H1546   H    0.49049   0.99335   0.92451   1.000
    H1547   H    0.34198   0.93941   0.99270   1.000
    H1548   H    0.31624   0.94517   0.03548   1.000
    H1549   H    0.40637   0.88186   0.02072   1.000
    H1550   H    0.38102   0.88740   0.06289   1.000
    Cr1551  Cr   0.59230   0.96616   0.13577   1.000
    Cr1552  Cr   0.71966   0.89037   0.94344   1.000
    C1553   C    0.70277   0.78908   0.82760   1.000
    C1554   C    0.73753   0.85045   0.88898   1.000
    C1555   C    0.74597   0.83545   0.87397   1.000
    C1556   C    0.82254   0.84479   0.93321   1.000
    C1557   C    0.77511   0.86780   0.93773   1.000
    C1558   C    0.79833   0.84359   0.93911   1.000
    C1559   C    0.79696   0.81932   0.94542   1.000
    C1560   C    0.60157   0.04163   0.06406   1.000
    C1561   C    0.62499   0.99695   0.09064   1.000
    C1562   C    0.62506   0.02205   0.06782   1.000
    C1563   C    0.64857   0.02610   0.04855   1.000
    C1564   C    0.54484   0.98201   0.08703   1.000
    C1565   C    0.58169   0.95039   0.10596   1.000
    C1566   C    0.56470   0.95760   0.09130   1.000
    C1567   C    0.52917   0.98848   0.07319   1.000
    C1568   C    0.51739   0.97801   0.04690   1.000
    C1569   C    0.53274   0.97073   0.06325   1.000
    C1570   C    0.56810   0.93984   0.08149   1.000
    C1571   C    0.55243   0.94626   0.06778   1.000
    C1572   C    0.62901   0.92736   0.96575   1.000
    C1573   C    0.60159   0.93637   0.97480   1.000
    C1574   C    0.71368   0.00806   0.92776   1.000
    C1575   C    0.72170   0.97696   0.90834   1.000
    C1576   C    0.71013   0.00328   0.91028   1.000
    C1577   C    0.70062   0.03250   0.93111   1.000
    C1578   C    0.58192   0.91743   0.17204   1.000
    C1579   C    0.68385   0.05253   0.91701   1.000
    C1580   C    0.69408   0.02362   0.89562   1.000
    C1581   C    0.68119   0.04787   0.89889   1.000
    O1582   O    0.74786   0.78897   0.82441   1.000
    O1583   O    0.72475   0.88117   0.91673   1.000
    O1584   O    0.76523   0.80648   0.84199   1.000
    O1585   O    0.75327   0.86630   0.94363   1.000
    O1586   O    0.77824   0.93031   0.88918   1.000
    O1587   O    0.60319   0.99374   0.10659   1.000
    O1588   O    0.60330   0.96902   0.15715   1.000
    O1589   O    0.57723   0.96610   0.11604   1.000
    O1590   O    0.60000   0.92851   0.10795   1.000
    O1591   O    0.50060   0.00073   0.04203   1.000
    O1592   O    0.52229   0.96133   0.03782   1.000
    O1593   O    0.68444   0.91074   0.94621   1.000
    O1594   O    0.54751   0.95654   0.99199   1.000
    O1595   O    0.73889   0.95984   0.91888   1.000
    O1596   O    0.71343   0.89668   0.97254   1.000
    O1597   O    0.57773   0.94145   0.16590   1.000
    O1598   O    0.65057   0.91093   0.09263   1.000
    H1599   H    0.71098   0.77378   0.84271   1.000
    H1600   H    0.73468   0.84083   0.90963   1.000
    H1601   H    0.74927   0.81471   0.88351   1.000
    H1602   H    0.82446   0.86305   0.92826   1.000
    H1603   H    0.77869   0.81764   0.95001   1.000
    H1604   H    0.58302   0.03939   0.07824   1.000
    H1605   H    0.66710   0.01158   0.05050   1.000
    H1606   H    0.54151   0.99626   0.09421   1.000
    H1607   H    0.51443   0.00759   0.07002   1.000
    H1608   H    0.58302   0.92083   0.08433   1.000
    H1609   H    0.55606   0.93203   0.06039   1.000
    H1610   H    0.63910   0.90893   0.97758   1.000
    H1611   H    0.59165   0.92451   0.99335   1.000
    H1612   H    0.72592   0.99270   0.93941   1.000
    H1613   H    0.70310   0.03548   0.94517   1.000
    H1614   H    0.69105   0.02072   0.88186   1.000
    H1615   H    0.66869   0.06289   0.88740   1.000
    Cr1616  Cr   0.13577   0.96616   0.59230   1.000
    Cr1617  Cr   0.94344   0.89037   0.71966   1.000
    C1618   C    0.82760   0.78908   0.70277   1.000
    C1619   C    0.88898   0.85045   0.73753   1.000
    C1620   C    0.87397   0.83545   0.74597   1.000
    C1621   C    0.93321   0.84479   0.82254   1.000
    C1622   C    0.93773   0.86780   0.77511   1.000
    C1623   C    0.93911   0.84359   0.79833   1.000
    C1624   C    0.94542   0.81932   0.79696   1.000
    C1625   C    0.06406   0.04163   0.60157   1.000
    C1626   C    0.09064   0.99695   0.62499   1.000
    C1627   C    0.06782   0.02205   0.62506   1.000
    C1628   C    0.04855   0.02610   0.64857   1.000
    C1629   C    0.08703   0.98201   0.54484   1.000
    C1630   C    0.10596   0.95039   0.58169   1.000
    C1631   C    0.09130   0.95760   0.56470   1.000
    C1632   C    0.07319   0.98848   0.52917   1.000
    C1633   C    0.04690   0.97801   0.51739   1.000
    C1634   C    0.06325   0.97073   0.53274   1.000
    C1635   C    0.08149   0.93984   0.56810   1.000
    C1636   C    0.06778   0.94626   0.55243   1.000
    C1637   C    0.96575   0.92736   0.62901   1.000
    C1638   C    0.97480   0.93637   0.60159   1.000
    C1639   C    0.92776   0.00806   0.71368   1.000
    C1640   C    0.90834   0.97696   0.72170   1.000
    O1641   O    0.12500   0.93992   0.62500   1.000
    Cr1642  Cr   0.90935   0.12500   0.34065   1.000
    O1643   O    0.93992   0.12500   0.31008   1.000
    Cr1644  Cr   0.62500   0.34065   0.12500   1.000
    O1645   O    0.62500   0.31008   0.12500   1.000
    Cr1646  Cr   0.34065   0.62500   0.90935   1.000
    O1647   O    0.31008   0.62500   0.93992   1.000
    Cr1648  Cr   0.62500   0.12500   0.90935   1.000
    O1649   O    0.62500   0.12500   0.93992   1.000
    Cr1650  Cr   0.34065   0.90935   0.12500   1.000
    O1651   O    0.31008   0.93992   0.12500   1.000
    Cr1652  Cr   0.12500   0.62500   0.34065   1.000
    O1653   O    0.12500   0.62500   0.31008   1.000
    Cr1654  Cr   0.90935   0.34065   0.62500   1.000
    O1655   O    0.93992   0.31008   0.62500   1.000
    Cr1656  Cr   0.90935   0.62500   0.12500   1.000
    O1657   O    0.93992   0.62500   0.12500   1.000
    Cr1658  Cr   0.12500   0.34065   0.90935   1.000
    O1659   O    0.12500   0.31008   0.93992   1.000
    Cr1660  Cr   0.34065   0.12500   0.62500   1.000
    O1661   O    0.31008   0.12500   0.62500   1.000
    Cr1662  Cr   0.62500   0.90935   0.34065   1.000
    O1663   O    0.62500   0.93992   0.31008   1.000
    Cr1664  Cr   0.22983   0.22983   0.77017   1.000
    O1665   O    0.25157   0.25157   0.74843   1.000
    Cr1666  Cr   0.77017   0.77017   0.22983   1.000
    O1667   O    0.74843   0.74843   0.25157   1.000
    Cr1668  Cr   0.77017   0.22983   0.22983   1.000
    O1669   O    0.74843   0.25157   0.25157   1.000
    Cr1670  Cr   0.22983   0.77017   0.77017   1.000
    O1671   O    0.25157   0.74843   0.74843   1.000
    Cr1672  Cr   0.22983   0.77017   0.22983   1.000
    O1673   O    0.25157   0.74843   0.25157   1.000
    Cr1674  Cr   0.77017   0.22983   0.77017   1.000
    O1675   O    0.74843   0.25157   0.74843   1.000
    Cr1676  Cr   0.02017   0.02017   0.47983   1.000
    O1677   O    0.99843   0.99843   0.50157   1.000
    Cr1678  Cr   0.47983   0.47983   0.02017   1.000
    O1679   O    0.50157   0.50157   0.99843   1.000
    Cr1680  Cr   0.47983   0.02017   0.47983   1.000
    O1681   O    0.50157   0.99843   0.50157   1.000
    Cr1682  Cr   0.02017   0.47983   0.02017   1.000
    O1683   O    0.99843   0.50157   0.99843   1.000
    Cr1684  Cr   0.02017   0.47983   0.47983   1.000
    O1685   O    0.99843   0.50157   0.50157   1.000
    Cr1686  Cr   0.47983   0.02017   0.02017   1.000
    O1687   O    0.50157   0.99843   0.99843   1.000
    Cr1688  Cr   0.23592   0.28896   0.73756   1.000
    Cr1689  Cr   0.28896   0.23592   0.73756   1.000
    H1690   H    0.90963   0.84083   0.73468   1.000
    H1691   H    0.88351   0.81471   0.74927   1.000
    H1692   H    0.92826   0.86305   0.82446   1.000
    H1693   H    0.95001   0.81764   0.77869   1.000
    H1694   H    0.07824   0.03939   0.58302   1.000
    H1695   H    0.05050   0.01158   0.66710   1.000
    H1696   H    0.09421   0.99626   0.54151   1.000
    H1697   H    0.07002   0.00759   0.51443   1.000
    H1698   H    0.08433   0.92083   0.58302   1.000
    H1699   H    0.06039   0.93203   0.55606   1.000
    H1700   H    0.97758   0.90893   0.63910   1.000
    H1701   H    0.99335   0.92451   0.59165   1.000
    H1702   H    0.93941   0.99270   0.72592   1.000
    H1703   H    0.94517   0.03548   0.70310   1.000
    H1704   H    0.88186   0.02072   0.69105   1.000
    H1705   H    0.88740   0.06289   0.66869   1.000
    Cr1706  Cr   0.96616   0.13577   0.30577   1.000
    Cr1707  Cr   0.89037   0.94344   0.44652   1.000
    C1708   C    0.78908   0.82760   0.68056   1.000
    C1709   C    0.85045   0.88898   0.52304   1.000
    C1710   C    0.83545   0.87397   0.54461   1.000
    C1711   C    0.84479   0.93321   0.39946   1.000
    C1712   C    0.86780   0.93773   0.41937   1.000
    C1713   C    0.84359   0.93911   0.41896   1.000
    C1714   C    0.81932   0.94542   0.43830   1.000
    C1715   C    0.04163   0.06406   0.29274   1.000
    C1716   C    0.99695   0.09064   0.28742   1.000
    C1717   C    0.02205   0.06782   0.28506   1.000
    C1718   C    0.02610   0.04855   0.27678   1.000
    C1719   C    0.98201   0.08703   0.38611   1.000
    C1720   C    0.95039   0.10596   0.36196   1.000
    C1721   C    0.95760   0.09130   0.38640   1.000
    C1722   C    0.98848   0.07319   0.40915   1.000
    C1723   C    0.97801   0.04690   0.45770   1.000
    C1724   C    0.97073   0.06325   0.43328   1.000
    C1725   C    0.93984   0.08149   0.41057   1.000
    C1726   C    0.94626   0.06778   0.43353   1.000
    C1727   C    0.92736   0.96575   0.47788   1.000
    C1728   C    0.93637   0.97480   0.48724   1.000
    C1729   C    0.00806   0.92776   0.35050   1.000
    C1730   C    0.97696   0.90834   0.39300   1.000
    C1731   C    0.00328   0.91028   0.37631   1.000
    C1732   C    0.03250   0.93111   0.33577   1.000
    C1733   C    0.91743   0.17204   0.32862   1.000
    C1734   C    0.05253   0.91701   0.34661   1.000
    C1735   C    0.02362   0.89562   0.38669   1.000
    C1736   C    0.04787   0.89889   0.37206   1.000
    O1737   O    0.78897   0.82441   0.63876   1.000
    O1738   O    0.88117   0.91673   0.47735   1.000
    O1739   O    0.80648   0.84199   0.58630   1.000
    O1740   O    0.86630   0.94363   0.43680   1.000
    O1741   O    0.93031   0.88918   0.40227   1.000
    O1742   O    0.99374   0.10659   0.29648   1.000
    O1743   O    0.96902   0.15715   0.27054   1.000
    O1744   O    0.96610   0.11604   0.34063   1.000
    O1745   O    0.92851   0.10795   0.36353   1.000
    O1746   O    0.00073   0.04203   0.45664   1.000
    O1747   O    0.96133   0.03782   0.47857   1.000
    O1748   O    0.91074   0.94621   0.45860   1.000
    O1749   O    0.95654   0.99199   0.50396   1.000
    O1750   O    0.95984   0.91888   0.38238   1.000
    O1751   O    0.89668   0.97254   0.41736   1.000
    O1752   O    0.94145   0.16590   0.31492   1.000
    O1753   O    0.91093   0.09263   0.34586   1.000
    H1754   H    0.77378   0.84271   0.67253   1.000
    H1755   H    0.84083   0.90963   0.51485   1.000
    H1756   H    0.81471   0.88351   0.55251   1.000
    H1757   H    0.86305   0.92826   0.38423   1.000
    H1758   H    0.81764   0.95001   0.45366   1.000
    H1759   H    0.03939   0.07824   0.29936   1.000
    H1760   H    0.01158   0.05050   0.27082   1.000
    H1761   H    0.99626   0.09421   0.36801   1.000
    H1762   H    0.00759   0.07002   0.40797   1.000
    H1763   H    0.92083   0.08433   0.41181   1.000
    H1764   H    0.93203   0.06039   0.45151   1.000
    H1765   H    0.90893   0.97758   0.47439   1.000
    H1766   H    0.92451   0.99335   0.49049   1.000
    H1767   H    0.99270   0.93941   0.34198   1.000
    H1768   H    0.03548   0.94517   0.31624   1.000
    H1769   H    0.02072   0.88186   0.40637   1.000
    H1770   H    0.06289   0.88740   0.38102   1.000
    Cr1771  Cr   0.59230   0.30577   0.13577   1.000
    Cr1772  Cr   0.71966   0.44652   0.94344   1.000
    C1773   C    0.70277   0.68056   0.82760   1.000
    C1774   C    0.73753   0.52304   0.88898   1.000
    C1775   C    0.74597   0.54461   0.87397   1.000
    C1776   C    0.82254   0.39946   0.93321   1.000
    C1777   C    0.77511   0.41937   0.93773   1.000
    C1778   C    0.79833   0.41896   0.93911   1.000
    C1779   C    0.79696   0.43830   0.94542   1.000
    C1780   C    0.60157   0.29274   0.06406   1.000
    C1781   C    0.62499   0.28742   0.09064   1.000
    C1782   C    0.62506   0.28506   0.06782   1.000
    C1783   C    0.64857   0.27678   0.04855   1.000
    C1784   C    0.54484   0.38611   0.08703   1.000
    C1785   C    0.58169   0.36196   0.10596   1.000
    C1786   C    0.56470   0.38640   0.09130   1.000
    C1787   C    0.52917   0.40915   0.07319   1.000
    C1788   C    0.51739   0.45770   0.04690   1.000
    C1789   C    0.53274   0.43328   0.06325   1.000
    C1790   C    0.56810   0.41057   0.08149   1.000
    C1791   C    0.55243   0.43353   0.06778   1.000
    C1792   C    0.62901   0.47788   0.96575   1.000
    C1793   C    0.60159   0.48724   0.97480   1.000
    C1794   C    0.71368   0.35050   0.92776   1.000
    C1795   C    0.72170   0.39300   0.90834   1.000
    C1796   C    0.71013   0.37631   0.91028   1.000
    C1797   C    0.70062   0.33577   0.93111   1.000
    C1798   C    0.58192   0.32862   0.17204   1.000
    C1799   C    0.68385   0.34661   0.91701   1.000
    C1800   C    0.69408   0.38669   0.89562   1.000
    C1801   C    0.68119   0.37206   0.89889   1.000
    O1802   O    0.74786   0.63876   0.82441   1.000
    O1803   O    0.72475   0.47735   0.91673   1.000
    O1804   O    0.76523   0.58630   0.84199   1.000
    O1805   O    0.75327   0.43680   0.94363   1.000
    O1806   O    0.77824   0.40227   0.88918   1.000
    O1807   O    0.60319   0.29648   0.10659   1.000
    O1808   O    0.60330   0.27054   0.15715   1.000
    O1809   O    0.57723   0.34063   0.11604   1.000
    O1810   O    0.60000   0.36353   0.10795   1.000
    O1811   O    0.50060   0.45664   0.04203   1.000
    O1812   O    0.52229   0.47857   0.03782   1.000
    O1813   O    0.68444   0.45860   0.94621   1.000
    O1814   O    0.54751   0.50396   0.99199   1.000
    O1815   O    0.73889   0.38238   0.91888   1.000
    O1816   O    0.71343   0.41736   0.97254   1.000
    O1817   O    0.57773   0.31492   0.16590   1.000
    O1818   O    0.65057   0.34586   0.09263   1.000
    H1819   H    0.71098   0.67253   0.84271   1.000
    H1820   H    0.73468   0.51485   0.90963   1.000
    H1821   H    0.74927   0.55251   0.88351   1.000
    H1822   H    0.82446   0.38423   0.92826   1.000
    H1823   H    0.77869   0.45366   0.95001   1.000
    H1824   H    0.58302   0.29936   0.07824   1.000
    H1825   H    0.66710   0.27082   0.05050   1.000
    H1826   H    0.54151   0.36801   0.09421   1.000
    H1827   H    0.51443   0.40797   0.07002   1.000
    H1828   H    0.58302   0.41181   0.08433   1.000
    H1829   H    0.55606   0.45151   0.06039   1.000
    H1830   H    0.63910   0.47439   0.97758   1.000
    H1831   H    0.59165   0.49049   0.99335   1.000
    H1832   H    0.72592   0.34198   0.93941   1.000
    H1833   H    0.70310   0.31624   0.94517   1.000
    H1834   H    0.69105   0.40637   0.88186   1.000
    H1835   H    0.66869   0.38102   0.88740   1.000
    Cr1836  Cr   0.30577   0.59230   0.96616   1.000
    Cr1837  Cr   0.44652   0.71966   0.89037   1.000
    C1838   C    0.68056   0.70277   0.78908   1.000
    C1839   C    0.52304   0.73753   0.85045   1.000
    C1840   C    0.54461   0.74597   0.83545   1.000
    C1841   C    0.39946   0.82254   0.84479   1.000
    C1842   C    0.41937   0.77511   0.86780   1.000
    C1843   C    0.41896   0.79833   0.84359   1.000
    C1844   C    0.43830   0.79696   0.81932   1.000
    C1845   C    0.29274   0.60157   0.04163   1.000
    C1846   C    0.28742   0.62499   0.99695   1.000
    C1847   C    0.28506   0.62506   0.02205   1.000
    C1848   C    0.27678   0.64857   0.02610   1.000
    C1849   C    0.38611   0.54484   0.98201   1.000
    C1850   C    0.36196   0.58169   0.95039   1.000
    C1851   C    0.38640   0.56470   0.95760   1.000
    C1852   C    0.40915   0.52917   0.98848   1.000
    C1853   C    0.45770   0.51739   0.97801   1.000
    C1854   C    0.43328   0.53274   0.97073   1.000
    C1855   C    0.41057   0.56810   0.93984   1.000
    C1856   C    0.43353   0.55243   0.94626   1.000
    C1857   C    0.47788   0.62901   0.92736   1.000
    C1858   C    0.48724   0.60159   0.93637   1.000
    C1859   C    0.35050   0.71368   0.00806   1.000
    C1860   C    0.39300   0.72170   0.97696   1.000
    C1861   C    0.37631   0.71013   0.00328   1.000
    C1862   C    0.33577   0.70062   0.03250   1.000
    C1863   C    0.32862   0.58192   0.91743   1.000
    C1864   C    0.34661   0.68385   0.05253   1.000
    C1865   C    0.38669   0.69408   0.02362   1.000
    C1866   C    0.37206   0.68119   0.04787   1.000
    O1867   O    0.63876   0.74786   0.78897   1.000
    O1868   O    0.47735   0.72475   0.88117   1.000
    O1869   O    0.58630   0.76523   0.80648   1.000
    O1870   O    0.43680   0.75327   0.86630   1.000
    O1871   O    0.40227   0.77824   0.93031   1.000
    O1872   O    0.29648   0.60319   0.99374   1.000
    O1873   O    0.27054   0.60330   0.96902   1.000
    O1874   O    0.34063   0.57723   0.96610   1.000
    O1875   O    0.36353   0.60000   0.92851   1.000
    O1876   O    0.45664   0.50060   0.00073   1.000
    O1877   O    0.47857   0.52229   0.96133   1.000
    O1878   O    0.45860   0.68444   0.91074   1.000
    O1879   O    0.50396   0.54751   0.95654   1.000
    O1880   O    0.38238   0.73889   0.95984   1.000
    O1881   O    0.41736   0.71343   0.89668   1.000
    O1882   O    0.31492   0.57773   0.94145   1.000
    O1883   O    0.34586   0.65057   0.91093   1.000
    H1884   H    0.67253   0.71098   0.77378   1.000
    H1885   H    0.51485   0.73468   0.84083   1.000
    H1886   H    0.55251   0.74927   0.81471   1.000
    H1887   H    0.38423   0.82446   0.86305   1.000
    H1888   H    0.45366   0.77869   0.81764   1.000
    H1889   H    0.29936   0.58302   0.03939   1.000
    H1890   H    0.27082   0.66710   0.01158   1.000
    H1891   H    0.36801   0.54151   0.99626   1.000
    H1892   H    0.40797   0.51443   0.00759   1.000
    H1893   H    0.41181   0.58302   0.92083   1.000
    H1894   H    0.45151   0.55606   0.93203   1.000
    H1895   H    0.47439   0.63910   0.90893   1.000
    H1896   H    0.49049   0.59165   0.92451   1.000
    H1897   H    0.34198   0.72592   0.99270   1.000
    H1898   H    0.31624   0.70310   0.03548   1.000
    H1899   H    0.40637   0.69105   0.02072   1.000
    H1900   H    0.38102   0.66869   0.06289   1.000
    Cr1901  Cr   0.59230   0.13577   0.96616   1.000
    Cr1902  Cr   0.71966   0.94344   0.89037   1.000
    C1903   C    0.70277   0.82760   0.78908   1.000
    C1904   C    0.73753   0.88898   0.85045   1.000
    C1905   C    0.74597   0.87397   0.83545   1.000
    C1906   C    0.82254   0.93321   0.84479   1.000
    C1907   C    0.77511   0.93773   0.86780   1.000
    C1908   C    0.79833   0.93911   0.84359   1.000
    C1909   C    0.79696   0.94542   0.81932   1.000
    C1910   C    0.60157   0.06406   0.04163   1.000
    C1911   C    0.62499   0.09064   0.99695   1.000
    C1912   C    0.62506   0.06782   0.02205   1.000
    C1913   C    0.64857   0.04855   0.02610   1.000
    C1914   C    0.54484   0.08703   0.98201   1.000
    C1915   C    0.58169   0.10596   0.95039   1.000
    C1916   C    0.56470   0.09130   0.95760   1.000
    C1917   C    0.52917   0.07319   0.98848   1.000
    C1918   C    0.51739   0.04690   0.97801   1.000
    C1919   C    0.53274   0.06325   0.97073   1.000
    C1920   C    0.56810   0.08149   0.93984   1.000
    C1921   C    0.55243   0.06778   0.94626   1.000
    C1922   C    0.62901   0.96575   0.92736   1.000
    C1923   C    0.60159   0.97480   0.93637   1.000
    C1924   C    0.71368   0.92776   0.00806   1.000
    C1925   C    0.72170   0.90834   0.97696   1.000
    C1926   C    0.71013   0.91028   0.00328   1.000
    C1927   C    0.70062   0.93111   0.03250   1.000
    C1928   C    0.58192   0.17204   0.91743   1.000
    C1929   C    0.68385   0.91701   0.05253   1.000
    C1930   C    0.69408   0.89562   0.02362   1.000
    C1931   C    0.68119   0.89889   0.04787   1.000
    O1932   O    0.74786   0.82441   0.78897   1.000
    O1933   O    0.72475   0.91673   0.88117   1.000
    O1934   O    0.76523   0.84199   0.80648   1.000
    O1935   O    0.75327   0.94363   0.86630   1.000
    O1936   O    0.77824   0.88918   0.93031   1.000
    O1937   O    0.60319   0.10659   0.99374   1.000
    O1938   O    0.60330   0.15715   0.96902   1.000
    O1939   O    0.57723   0.11604   0.96610   1.000
    O1940   O    0.60000   0.10795   0.92851   1.000
    O1941   O    0.50060   0.04203   0.00073   1.000
    O1942   O    0.52229   0.03782   0.96133   1.000
    O1943   O    0.68444   0.94621   0.91074   1.000
    O1944   O    0.54751   0.99199   0.95654   1.000
    O1945   O    0.73889   0.91888   0.95984   1.000
    O1946   O    0.71343   0.97254   0.89668   1.000
    O1947   O    0.57773   0.16590   0.94145   1.000
    O1948   O    0.65057   0.09263   0.91093   1.000
    H1949   H    0.71098   0.84271   0.77378   1.000
    H1950   H    0.73468   0.90963   0.84083   1.000
    H1951   H    0.74927   0.88351   0.81471   1.000
    H1952   H    0.82446   0.92826   0.86305   1.000
    H1953   H    0.77869   0.95001   0.81764   1.000
    H1954   H    0.58302   0.07824   0.03939   1.000
    H1955   H    0.66710   0.05050   0.01158   1.000
    H1956   H    0.54151   0.09421   0.99626   1.000
    H1957   H    0.51443   0.07002   0.00759   1.000
    H1958   H    0.58302   0.08433   0.92083   1.000
    H1959   H    0.55606   0.06039   0.93203   1.000
    H1960   H    0.63910   0.97758   0.90893   1.000
    H1961   H    0.59165   0.99335   0.92451   1.000
    H1962   H    0.72592   0.93941   0.99270   1.000
    H1963   H    0.70310   0.94517   0.03548   1.000
    H1964   H    0.69105   0.88186   0.02072   1.000
    H1965   H    0.66869   0.88740   0.06289   1.000
    Cr1966  Cr   0.30577   0.96616   0.13577   1.000
    Cr1967  Cr   0.44652   0.89037   0.94344   1.000
    C1968   C    0.68056   0.78908   0.82760   1.000
    C1969   C    0.52304   0.85045   0.88898   1.000
    C1970   C    0.54461   0.83545   0.87397   1.000
    C1971   C    0.39946   0.84479   0.93321   1.000
    C1972   C    0.41937   0.86780   0.93773   1.000
    C1973   C    0.41896   0.84359   0.93911   1.000
    C1974   C    0.43830   0.81932   0.94542   1.000
    C1975   C    0.29274   0.04163   0.06406   1.000
    C1976   C    0.28742   0.99695   0.09064   1.000
    C1977   C    0.28506   0.02205   0.06782   1.000
    C1978   C    0.27678   0.02610   0.04855   1.000
    C1979   C    0.38611   0.98201   0.08703   1.000
    C1980   C    0.36196   0.95039   0.10596   1.000
    C1981   C    0.38640   0.95760   0.09130   1.000
    C1982   C    0.40915   0.98848   0.07319   1.000
    C1983   C    0.45770   0.97801   0.04690   1.000
    C1984   C    0.43328   0.97073   0.06325   1.000
    C1985   C    0.41057   0.93984   0.08149   1.000
    C1986   C    0.43353   0.94626   0.06778   1.000
    C1987   C    0.47788   0.92736   0.96575   1.000
    C1988   C    0.48724   0.93637   0.97480   1.000
    C1989   C    0.35050   0.00806   0.92776   1.000
    C1990   C    0.39300   0.97696   0.90834   1.000
    C1991   C    0.37631   0.00328   0.91028   1.000
    C1992   C    0.33577   0.03250   0.93111   1.000
    C1993   C    0.32862   0.91743   0.17204   1.000
    C1994   C    0.34661   0.05253   0.91701   1.000
    C1995   C    0.38669   0.02362   0.89562   1.000
    C1996   C    0.37206   0.04787   0.89889   1.000
    O1997   O    0.63876   0.78897   0.82441   1.000
    O1998   O    0.47735   0.88117   0.91673   1.000
    O1999   O    0.58630   0.80648   0.84199   1.000
    O2000   O    0.43680   0.86630   0.94363   1.000
    O2001   O    0.40227   0.93031   0.88918   1.000
    O2002   O    0.29648   0.99374   0.10659   1.000
    O2003   O    0.27054   0.96902   0.15715   1.000
    O2004   O    0.34063   0.96610   0.11604   1.000
    O2005   O    0.36353   0.92851   0.10795   1.000
    O2006   O    0.45664   0.00073   0.04203   1.000
    O2007   O    0.47857   0.96133   0.03782   1.000
    O2008   O    0.45860   0.91074   0.94621   1.000
    O2009   O    0.50396   0.95654   0.99199   1.000
    O2010   O    0.38238   0.95984   0.91888   1.000
    O2011   O    0.41736   0.89668   0.97254   1.000
    O2012   O    0.31492   0.94145   0.16590   1.000
    O2013   O    0.34586   0.91093   0.09263   1.000
    H2014   H    0.67253   0.77378   0.84271   1.000
    H2015   H    0.51485   0.84083   0.90963   1.000
    H2016   H    0.55251   0.81471   0.88351   1.000
    H2017   H    0.38423   0.86305   0.92826   1.000
    H2018   H    0.45366   0.81764   0.95001   1.000
    H2019   H    0.29936   0.03939   0.07824   1.000
    H2020   H    0.27082   0.01158   0.05050   1.000
    H2021   H    0.36801   0.99626   0.09421   1.000
    H2022   H    0.40797   0.00759   0.07002   1.000
    H2023   H    0.41181   0.92083   0.08433   1.000
    H2024   H    0.45151   0.93203   0.06039   1.000
    H2025   H    0.47439   0.90893   0.97758   1.000
    H2026   H    0.49049   0.92451   0.99335   1.000
    H2027   H    0.34198   0.99270   0.93941   1.000
    H2028   H    0.31624   0.03548   0.94517   1.000
    H2029   H    0.40637   0.02072   0.88186   1.000
    H2030   H    0.38102   0.06289   0.88740   1.000
    Cr2031  Cr   0.13577   0.59230   0.30577   1.000
    Cr2032  Cr   0.94344   0.71966   0.44652   1.000
    C2033   C    0.82760   0.70277   0.68056   1.000
    C2034   C    0.88898   0.73753   0.52304   1.000
    C2035   C    0.87397   0.74597   0.54461   1.000
    C2036   C    0.93321   0.82254   0.39946   1.000
    C2037   C    0.93773   0.77511   0.41937   1.000
    C2038   C    0.93911   0.79833   0.41896   1.000
    C2039   C    0.94542   0.79696   0.43830   1.000
    C2040   C    0.06406   0.60157   0.29274   1.000
    C2041   C    0.09064   0.62499   0.28742   1.000
    C2042   C    0.06782   0.62506   0.28506   1.000
    C2043   C    0.04855   0.64857   0.27678   1.000
    C2044   C    0.08703   0.54484   0.38611   1.000
    C2045   C    0.10596   0.58169   0.36196   1.000
    C2046   C    0.09130   0.56470   0.38640   1.000
    C2047   C    0.07319   0.52917   0.40915   1.000
    C2048   C    0.04690   0.51739   0.45770   1.000
    C2049   C    0.06325   0.53274   0.43328   1.000
    C2050   C    0.08149   0.56810   0.41057   1.000
    C2051   C    0.06778   0.55243   0.43353   1.000
    C2052   C    0.96575   0.62901   0.47788   1.000
    C2053   C    0.97480   0.60159   0.48724   1.000
    C2054   C    0.92776   0.71368   0.35050   1.000
    C2055   C    0.90834   0.72170   0.39300   1.000
    C2056   C    0.91028   0.71013   0.37631   1.000
    C2057   C    0.93111   0.70062   0.33577   1.000
    C2058   C    0.17204   0.58192   0.32862   1.000
    C2059   C    0.91701   0.68385   0.34661   1.000
    C2060   C    0.89562   0.69408   0.38669   1.000
    C2061   C    0.89889   0.68119   0.37206   1.000
    O2062   O    0.82441   0.74786   0.63876   1.000
    O2063   O    0.91673   0.72475   0.47735   1.000
    O2064   O    0.84199   0.76523   0.58630   1.000
    O2065   O    0.94363   0.75327   0.43680   1.000
    O2066   O    0.88918   0.77824   0.40227   1.000
    O2067   O    0.10659   0.60319   0.29648   1.000
    O2068   O    0.15715   0.60330   0.27054   1.000
    O2069   O    0.11604   0.57723   0.34063   1.000
    O2070   O    0.10795   0.60000   0.36353   1.000
    O2071   O    0.04203   0.50060   0.45664   1.000
    O2072   O    0.03782   0.52229   0.47857   1.000
    O2073   O    0.94621   0.68444   0.45860   1.000
    O2074   O    0.99199   0.54751   0.50396   1.000
    O2075   O    0.91888   0.73889   0.38238   1.000
    O2076   O    0.97254   0.71343   0.41736   1.000
    O2077   O    0.16590   0.57773   0.31492   1.000
    O2078   O    0.09263   0.65057   0.34586   1.000
    H2079   H    0.84271   0.71098   0.67253   1.000
    H2080   H    0.90963   0.73468   0.51485   1.000
    H2081   H    0.88351   0.74927   0.55251   1.000
    H2082   H    0.92826   0.82446   0.38423   1.000
    H2083   H    0.95001   0.77869   0.45366   1.000
    H2084   H    0.07824   0.58302   0.29936   1.000
    H2085   H    0.05050   0.66710   0.27082   1.000
    H2086   H    0.09421   0.54151   0.36801   1.000
    H2087   H    0.07002   0.51443   0.40797   1.000
    H2088   H    0.08433   0.58302   0.41181   1.000
    H2089   H    0.06039   0.55606   0.45151   1.000
    H2090   H    0.97758   0.63910   0.47439   1.000
    H2091   H    0.99335   0.59165   0.49049   1.000
    H2092   H    0.93941   0.72592   0.34198   1.000
    H2093   H    0.94517   0.70310   0.31624   1.000
    H2094   H    0.88186   0.69105   0.40637   1.000
    H2095   H    0.88740   0.66869   0.38102   1.000
    Cr2096  Cr   0.96616   0.30577   0.59230   1.000
    Cr2097  Cr   0.89037   0.44652   0.71966   1.000
    C2098   C    0.78908   0.68056   0.70277   1.000
    C2099   C    0.85045   0.52304   0.73753   1.000
    C2100   C    0.83545   0.54461   0.74597   1.000
    C2101   C    0.84479   0.39946   0.82254   1.000
    C2102   C    0.86780   0.41937   0.77511   1.000
    C2103   C    0.84359   0.41896   0.79833   1.000
    C2104   C    0.81932   0.43830   0.79696   1.000
    C2105   C    0.04163   0.29274   0.60157   1.000
    C2106   C    0.99695   0.28742   0.62499   1.000
    C2107   C    0.02205   0.28506   0.62506   1.000
    C2108   C    0.02610   0.27678   0.64857   1.000
    C2109   C    0.98201   0.38611   0.54484   1.000
    C2110   C    0.95039   0.36196   0.58169   1.000
    C2111   C    0.95760   0.38640   0.56470   1.000
    C2112   C    0.98848   0.40915   0.52917   1.000
    C2113   C    0.97801   0.45770   0.51739   1.000
    C2114   C    0.97073   0.43328   0.53274   1.000
    C2115   C    0.93984   0.41057   0.56810   1.000
    C2116   C    0.94626   0.43353   0.55243   1.000
    C2117   C    0.92736   0.47788   0.62901   1.000
    C2118   C    0.93637   0.48724   0.60159   1.000
    C2119   C    0.00806   0.35050   0.71368   1.000
    C2120   C    0.97696   0.39300   0.72170   1.000
    C2121   C    0.00328   0.37631   0.71013   1.000
    C2122   C    0.03250   0.33577   0.70062   1.000
    C2123   C    0.91743   0.32862   0.58192   1.000
    C2124   C    0.05253   0.34661   0.68385   1.000
    C2125   C    0.02362   0.38669   0.69408   1.000
    C2126   C    0.04787   0.37206   0.68119   1.000
    O2127   O    0.78897   0.63876   0.74786   1.000
    O2128   O    0.88117   0.47735   0.72475   1.000
    Cr2129  Cr   0.96616   0.59230   0.13577   1.000
    Cr2130  Cr   0.89037   0.71966   0.94344   1.000
    C2131   C    0.78908   0.70277   0.82760   1.000
    C2132   C    0.85045   0.73753   0.88898   1.000
    C2133   C    0.83545   0.74597   0.87397   1.000
    C2134   C    0.84479   0.82254   0.93321   1.000
    C2135   C    0.86780   0.77511   0.93773   1.000
    C2136   C    0.84359   0.79833   0.93911   1.000
    C2137   C    0.81932   0.79696   0.94542   1.000
    C2138   C    0.04163   0.60157   0.06406   1.000
    C2139   C    0.99695   0.62499   0.09064   1.000
    C2140   C    0.02205   0.62506   0.06782   1.000
    C2141   C    0.02610   0.64857   0.04855   1.000
    C2142   C    0.98201   0.54484   0.08703   1.000
    C2143   C    0.95039   0.58169   0.10596   1.000
    C2144   C    0.95760   0.56470   0.09130   1.000
    C2145   C    0.98848   0.52917   0.07319   1.000
    C2146   C    0.97801   0.51739   0.04690   1.000
    C2147   C    0.97073   0.53274   0.06325   1.000
    C2148   C    0.93984   0.56810   0.08149   1.000
    C2149   C    0.94626   0.55243   0.06778   1.000
    C2150   C    0.92736   0.62901   0.96575   1.000
    C2151   C    0.93637   0.60159   0.97480   1.000
    C2152   C    0.00806   0.71368   0.92776   1.000
    C2153   C    0.97696   0.72170   0.90834   1.000
    C2154   C    0.00328   0.71013   0.91028   1.000
    C2155   C    0.03250   0.70062   0.93111   1.000
    C2156   C    0.91743   0.58192   0.17204   1.000
    C2157   C    0.05253   0.68385   0.91701   1.000
    C2158   C    0.02362   0.69408   0.89562   1.000
    C2159   C    0.04787   0.68119   0.89889   1.000
    O2160   O    0.78897   0.74786   0.82441   1.000
    O2161   O    0.88117   0.72475   0.91673   1.000
    O2162   O    0.80648   0.76523   0.84199   1.000
    O2163   O    0.86630   0.75327   0.94363   1.000
    O2164   O    0.93031   0.77824   0.88918   1.000
    O2165   O    0.99374   0.60319   0.10659   1.000
    O2166   O    0.96902   0.60330   0.15715   1.000
    O2167   O    0.96610   0.57723   0.11604   1.000
    O2168   O    0.92851   0.60000   0.10795   1.000
    O2169   O    0.00073   0.50060   0.04203   1.000
    O2170   O    0.96133   0.52229   0.03782   1.000
    O2171   O    0.91074   0.68444   0.94621   1.000
    O2172   O    0.95654   0.54751   0.99199   1.000
    O2173   O    0.95984   0.73889   0.91888   1.000
    O2174   O    0.89668   0.71343   0.97254   1.000
    O2175   O    0.94145   0.57773   0.16590   1.000
    O2176   O    0.91093   0.65057   0.09263   1.000
    H2177   H    0.77378   0.71098   0.84271   1.000
    H2178   H    0.84083   0.73468   0.90963   1.000
    H2179   H    0.81471   0.74927   0.88351   1.000
    H2180   H    0.86305   0.82446   0.92826   1.000
    H2181   H    0.81764   0.77869   0.95001   1.000
    H2182   H    0.03939   0.58302   0.07824   1.000
    H2183   H    0.01158   0.66710   0.05050   1.000
    H2184   H    0.99626   0.54151   0.09421   1.000
    H2185   H    0.00759   0.51443   0.07002   1.000
    H2186   H    0.92083   0.58302   0.08433   1.000
    H2187   H    0.93203   0.55606   0.06039   1.000
    H2188   H    0.90893   0.63910   0.97758   1.000
    H2189   H    0.92451   0.59165   0.99335   1.000
    H2190   H    0.99270   0.72592   0.93941   1.000
    H2191   H    0.03548   0.70310   0.94517   1.000
    H2192   H    0.02072   0.69105   0.88186   1.000
    H2193   H    0.06289   0.66869   0.88740   1.000
    Cr2194  Cr   0.13577   0.30577   0.96616   1.000
    Cr2195  Cr   0.94344   0.44652   0.89037   1.000
    C2196   C    0.82760   0.68056   0.78908   1.000
    C2197   C    0.88898   0.52304   0.85045   1.000
    C2198   C    0.87397   0.54461   0.83545   1.000
    C2199   C    0.93321   0.39946   0.84479   1.000
    C2200   C    0.93773   0.41937   0.86780   1.000
    C2201   C    0.93911   0.41896   0.84359   1.000
    C2202   C    0.94542   0.43830   0.81932   1.000
    C2203   C    0.06406   0.29274   0.04163   1.000
    C2204   C    0.09064   0.28742   0.99695   1.000
    C2205   C    0.06782   0.28506   0.02205   1.000
    C2206   C    0.04855   0.27678   0.02610   1.000
    C2207   C    0.08703   0.38611   0.98201   1.000
    C2208   C    0.10596   0.36196   0.95039   1.000
    C2209   C    0.09130   0.38640   0.95760   1.000
    C2210   C    0.07319   0.40915   0.98848   1.000
    C2211   C    0.04690   0.45770   0.97801   1.000
    C2212   C    0.06325   0.43328   0.97073   1.000
    C2213   C    0.08149   0.41057   0.93984   1.000
    C2214   C    0.06778   0.43353   0.94626   1.000
    C2215   C    0.96575   0.47788   0.92736   1.000
    C2216   C    0.97480   0.48724   0.93637   1.000
    C2217   C    0.92776   0.35050   0.00806   1.000
    C2218   C    0.90834   0.39300   0.97696   1.000
    C2219   C    0.91028   0.37631   0.00328   1.000
    C2220   C    0.93111   0.33577   0.03250   1.000
    C2221   C    0.17204   0.32862   0.91743   1.000
    C2222   C    0.91701   0.34661   0.05253   1.000
    C2223   C    0.89562   0.38669   0.02362   1.000
    C2224   C    0.89889   0.37206   0.04787   1.000
    O2225   O    0.82441   0.63876   0.78897   1.000
    O2226   O    0.91673   0.47735   0.88117   1.000
    O2227   O    0.84199   0.58630   0.80648   1.000
    O2228   O    0.94363   0.43680   0.86630   1.000
    O2229   O    0.88918   0.40227   0.93031   1.000
    O2230   O    0.10659   0.29648   0.99374   1.000
    O2231   O    0.15715   0.27054   0.96902   1.000
    O2232   O    0.11604   0.34063   0.96610   1.000
    O2233   O    0.10795   0.36353   0.92851   1.000
    O2234   O    0.04203   0.45664   0.00073   1.000
    O2235   O    0.03782   0.47857   0.96133   1.000
    O2236   O    0.94621   0.45860   0.91074   1.000
    O2237   O    0.99199   0.50396   0.95654   1.000
    O2238   O    0.91888   0.38238   0.95984   1.000
    O2239   O    0.97254   0.41736   0.89668   1.000
    O2240   O    0.16590   0.31492   0.94145   1.000
    O2241   O    0.09263   0.34586   0.91093   1.000
    H2242   H    0.84271   0.67253   0.77378   1.000
    H2243   H    0.90963   0.51485   0.84083   1.000
    H2244   H    0.88351   0.55251   0.81471   1.000
    H2245   H    0.92826   0.38423   0.86305   1.000
    H2246   H    0.95001   0.45366   0.81764   1.000
    H2247   H    0.07824   0.29936   0.03939   1.000
    H2248   H    0.05050   0.27082   0.01158   1.000
    H2249   H    0.09421   0.36801   0.99626   1.000
    H2250   H    0.07002   0.40797   0.00759   1.000
    H2251   H    0.08433   0.41181   0.92083   1.000
    H2252   H    0.06039   0.45151   0.93203   1.000
    H2253   H    0.97758   0.47439   0.90893   1.000
    H2254   H    0.99335   0.49049   0.92451   1.000
    H2255   H    0.93941   0.34198   0.99270   1.000
    H2256   H    0.94517   0.31624   0.03548   1.000
    H2257   H    0.88186   0.40637   0.02072   1.000
    H2258   H    0.88740   0.38102   0.06289   1.000
    Cr2259  Cr   0.30577   0.13577   0.59230   1.000
    Cr2260  Cr   0.44652   0.94344   0.71966   1.000
    C2261   C    0.68056   0.82760   0.70277   1.000
    C2262   C    0.52304   0.88898   0.73753   1.000
    C2263   C    0.54461   0.87397   0.74597   1.000
    C2264   C    0.39946   0.93321   0.82254   1.000
    C2265   C    0.41937   0.93773   0.77511   1.000
    C2266   C    0.41896   0.93911   0.79833   1.000
    C2267   C    0.43830   0.94542   0.79696   1.000
    C2268   C    0.29274   0.06406   0.60157   1.000
    C2269   C    0.28742   0.09064   0.62499   1.000
    C2270   C    0.28506   0.06782   0.62506   1.000
    C2271   C    0.27678   0.04855   0.64857   1.000
    C2272   C    0.38611   0.08703   0.54484   1.000
    C2273   C    0.36196   0.10596   0.58169   1.000
    C2274   C    0.38640   0.09130   0.56470   1.000
    C2275   C    0.40915   0.07319   0.52917   1.000
    C2276   C    0.45770   0.04690   0.51739   1.000
    C2277   C    0.43328   0.06325   0.53274   1.000
    C2278   C    0.41057   0.08149   0.56810   1.000
    C2279   C    0.43353   0.06778   0.55243   1.000
    C2280   C    0.47788   0.96575   0.62901   1.000
    C2281   C    0.48724   0.97480   0.60159   1.000
    C2282   C    0.35050   0.92776   0.71368   1.000
    C2283   C    0.39300   0.90834   0.72170   1.000
    C2284   C    0.37631   0.91028   0.71013   1.000
    C2285   C    0.33577   0.93111   0.70062   1.000
    C2286   C    0.32862   0.17204   0.58192   1.000
    C2287   C    0.34661   0.91701   0.68385   1.000
    C2288   C    0.38669   0.89562   0.69408   1.000
    C2289   C    0.37206   0.89889   0.68119   1.000
    O2290   O    0.63876   0.82441   0.74786   1.000
    O2291   O    0.47735   0.91673   0.72475   1.000
    O2292   O    0.58630   0.84199   0.76523   1.000
    O2293   O    0.43680   0.94363   0.75327   1.000
    O2294   O    0.40227   0.88918   0.77824   1.000
    O2295   O    0.29648   0.10659   0.60319   1.000
    O2296   O    0.27054   0.15715   0.60330   1.000
    O2297   O    0.34063   0.11604   0.57723   1.000
    O2298   O    0.36353   0.10795   0.60000   1.000
    O2299   O    0.45664   0.04203   0.50060   1.000
    O2300   O    0.47857   0.03782   0.52229   1.000
    O2301   O    0.45860   0.94621   0.68444   1.000
    O2302   O    0.50396   0.99199   0.54751   1.000
    O2303   O    0.38238   0.91888   0.73889   1.000
    O2304   O    0.41736   0.97254   0.71343   1.000
    O2305   O    0.31492   0.16590   0.57773   1.000
    O2306   O    0.34586   0.09263   0.65057   1.000
    H2307   H    0.67253   0.84271   0.71098   1.000
    H2308   H    0.51485   0.90963   0.73468   1.000
    H2309   H    0.55251   0.88351   0.74927   1.000
    H2310   H    0.38423   0.92826   0.82446   1.000
    H2311   H    0.45366   0.95001   0.77869   1.000
    H2312   H    0.29936   0.07824   0.58302   1.000
    H2313   H    0.27082   0.05050   0.66710   1.000
    H2314   H    0.36801   0.09421   0.54151   1.000
    H2315   H    0.40797   0.07002   0.51443   1.000
    H2316   H    0.41181   0.08433   0.58302   1.000
    H2317   H    0.45151   0.06039   0.55606   1.000
    H2318   H    0.47439   0.97758   0.63910   1.000
    H2319   H    0.49049   0.99335   0.59165   1.000
    H2320   H    0.34198   0.93941   0.72592   1.000
    H2321   H    0.31624   0.94517   0.70310   1.000
    H2322   H    0.40637   0.88186   0.69105   1.000
    H2323   H    0.38102   0.88740   0.66869   1.000
    Cr2324  Cr   0.59230   0.96616   0.30577   1.000
    Cr2325  Cr   0.71966   0.89037   0.44652   1.000
    C2326   C    0.70277   0.78908   0.68056   1.000
    C2327   C    0.73753   0.85045   0.52304   1.000
    C2328   C    0.74597   0.83545   0.54461   1.000
    C2329   C    0.82254   0.84479   0.39946   1.000
    C2330   C    0.77511   0.86780   0.41937   1.000
    C2331   C    0.79833   0.84359   0.41896   1.000
    C2332   C    0.79696   0.81932   0.43830   1.000
    C2333   C    0.60157   0.04163   0.29274   1.000
    C2334   C    0.62499   0.99695   0.28742   1.000
    C2335   C    0.62506   0.02205   0.28506   1.000
    C2336   C    0.64857   0.02610   0.27678   1.000
    C2337   C    0.54484   0.98201   0.38611   1.000
    C2338   C    0.58169   0.95039   0.36196   1.000
    C2339   C    0.56470   0.95760   0.38640   1.000
    C2340   C    0.52917   0.98848   0.40915   1.000
    C2341   C    0.51739   0.97801   0.45770   1.000
    C2342   C    0.53274   0.97073   0.43328   1.000
    C2343   C    0.56810   0.93984   0.41057   1.000
    C2344   C    0.55243   0.94626   0.43353   1.000
    C2345   C    0.62901   0.92736   0.47788   1.000
    C2346   C    0.60159   0.93637   0.48724   1.000
    C2347   C    0.71368   0.00806   0.35050   1.000
    C2348   C    0.72170   0.97696   0.39300   1.000
    C2349   C    0.71013   0.00328   0.37631   1.000
    C2350   C    0.70062   0.03250   0.33577   1.000
    C2351   C    0.58192   0.91743   0.32862   1.000
    C2352   C    0.68385   0.05253   0.34661   1.000
    C2353   C    0.69408   0.02362   0.38669   1.000
    C2354   C    0.68119   0.04787   0.37206   1.000
    O2355   O    0.74786   0.78897   0.63876   1.000
    O2356   O    0.72475   0.88117   0.47735   1.000
    O2357   O    0.76523   0.80648   0.58630   1.000
    O2358   O    0.75327   0.86630   0.43680   1.000
    O2359   O    0.77824   0.93031   0.40227   1.000
    O2360   O    0.60319   0.99374   0.29648   1.000
    O2361   O    0.60330   0.96902   0.27054   1.000
    O2362   O    0.57723   0.96610   0.34063   1.000
    O2363   O    0.60000   0.92851   0.36353   1.000
    O2364   O    0.50060   0.00073   0.45664   1.000
    O2365   O    0.52229   0.96133   0.47857   1.000
    O2366   O    0.68444   0.91074   0.45860   1.000
    O2367   O    0.54751   0.95654   0.50396   1.000
    O2368   O    0.73889   0.95984   0.38238   1.000
    O2369   O    0.71343   0.89668   0.41736   1.000
    O2370   O    0.57773   0.94145   0.31492   1.000
    O2371   O    0.65057   0.91093   0.34586   1.000
    H2372   H    0.71098   0.77378   0.67253   1.000
    H2373   H    0.73468   0.84083   0.51485   1.000
    H2374   H    0.74927   0.81471   0.55251   1.000
    H2375   H    0.82446   0.86305   0.38423   1.000
    H2376   H    0.77869   0.81764   0.45366   1.000
    H2377   H    0.58302   0.03939   0.29936   1.000
    H2378   H    0.66710   0.01158   0.27082   1.000
    H2379   H    0.54151   0.99626   0.36801   1.000
    H2380   H    0.51443   0.00759   0.40797   1.000
    H2381   H    0.58302   0.92083   0.41181   1.000
    H2382   H    0.55606   0.93203   0.45151   1.000
    H2383   H    0.63910   0.90893   0.47439   1.000
    H2384   H    0.59165   0.92451   0.49049   1.000
    H2385   H    0.72592   0.99270   0.34198   1.000
    H2386   H    0.70310   0.03548   0.31624   1.000
    H2387   H    0.69105   0.02072   0.40637   1.000
    H2388   H    0.66869   0.06289   0.38102   1.000
    Cr2389  Cr   0.11423   0.28384   0.94423   1.000
    Cr2390  Cr   0.30656   0.35963   0.80348   1.000
    C2391   C    0.42240   0.46092   0.56944   1.000
    C2392   C    0.36102   0.39955   0.72696   1.000
    C2393   C    0.37603   0.41455   0.70539   1.000
    C2394   C    0.31679   0.40521   0.85054   1.000
    C2395   C    0.31227   0.38220   0.83063   1.000
    C2396   C    0.31089   0.40641   0.83104   1.000
    C2397   C    0.30458   0.43068   0.81170   1.000
    C2398   C    0.18594   0.20837   0.95726   1.000
    C2399   C    0.15936   0.25305   0.96258   1.000
    C2400   C    0.18218   0.22795   0.96494   1.000
    C2401   C    0.20145   0.22390   0.97322   1.000
    C2402   C    0.16297   0.26799   0.86389   1.000
    C2403   C    0.14404   0.29961   0.88804   1.000
    C2404   C    0.15870   0.29240   0.86360   1.000
    C2405   C    0.17681   0.26152   0.84085   1.000
    C2406   C    0.20310   0.27199   0.79230   1.000
    C2407   C    0.18675   0.27927   0.81672   1.000
    C2408   C    0.16851   0.31016   0.83943   1.000
    C2409   C    0.18222   0.30374   0.81647   1.000
    C2410   C    0.28425   0.32264   0.77212   1.000
    C2411   C    0.27520   0.31363   0.76276   1.000
    C2412   C    0.32224   0.24194   0.89950   1.000
    C2413   C    0.34166   0.27304   0.85700   1.000
    C2414   C    0.33972   0.24672   0.87369   1.000
    C2415   C    0.31889   0.21750   0.91423   1.000
    C2416   C    0.07796   0.33257   0.92138   1.000
    C2417   C    0.33299   0.19747   0.90339   1.000
    C2418   C    0.35438   0.22638   0.86331   1.000
    C2419   C    0.35111   0.20213   0.87794   1.000
    O2420   O    0.42559   0.46103   0.61124   1.000
    O2421   O    0.33327   0.36883   0.77265   1.000
    O2422   O    0.40801   0.44352   0.66370   1.000
    O2423   O    0.30637   0.38370   0.81320   1.000
    O2424   O    0.36082   0.31969   0.84773   1.000
    O2425   O    0.14341   0.25626   0.95352   1.000
    O2426   O    0.09285   0.28098   0.97946   1.000
    O2427   O    0.13396   0.28390   0.90937   1.000
    O2428   O    0.14205   0.32149   0.88647   1.000
    O2429   O    0.20797   0.24927   0.79336   1.000
    O2430   O    0.21218   0.28867   0.77143   1.000
    O2431   O    0.30379   0.33926   0.79140   1.000
    O2432   O    0.25801   0.29346   0.74604   1.000
    O2433   O    0.33112   0.29016   0.86762   1.000
    O2434   O    0.27746   0.35332   0.83264   1.000
    O2435   O    0.08410   0.30855   0.93508   1.000
    O2436   O    0.15737   0.33907   0.90414   1.000
    H2437   H    0.40729   0.47622   0.57747   1.000
    H2438   H    0.34037   0.40917   0.73515   1.000
    H2439   H    0.36649   0.43529   0.69749   1.000
    H2440   H    0.32174   0.38695   0.86577   1.000
    H2441   H    0.29999   0.43236   0.79634   1.000
    H2442   H    0.17176   0.21061   0.95064   1.000
    H2443   H    0.19950   0.23842   0.97918   1.000
    H2444   H    0.15579   0.25374   0.88199   1.000
    H2445   H    0.17998   0.24241   0.84203   1.000
    H2446   H    0.16567   0.32917   0.83819   1.000
    H2447   H    0.18961   0.31797   0.79849   1.000
    H2448   H    0.27242   0.34107   0.77561   1.000
    H2449   H    0.25665   0.32549   0.75951   1.000
    H2450   H    0.31059   0.25730   0.90802   1.000
    H2451   H    0.30483   0.21452   0.93376   1.000
    H2452   H    0.36814   0.22928   0.84363   1.000
    H2453   H    0.36260   0.18711   0.86898   1.000
    Cr2454  Cr   0.28384   0.11423   0.65770   1.000
    Cr2455  Cr   0.35963   0.30656   0.53034   1.000
    C2456   C    0.46092   0.42240   0.54723   1.000
    C2457   C    0.39955   0.36102   0.51247   1.000
    C2458   C    0.41455   0.37603   0.50403   1.000
    C2459   C    0.40521   0.31679   0.42746   1.000
    C2460   C    0.38220   0.31227   0.47489   1.000
    C2461   C    0.40641   0.31089   0.45167   1.000
    C2462   C    0.43068   0.30458   0.45304   1.000
    C2463   C    0.20837   0.18594   0.64843   1.000
    C2464   C    0.25305   0.15936   0.62501   1.000
    C2465   C    0.22795   0.18218   0.62494   1.000
    C2466   C    0.22390   0.20145   0.60143   1.000
    C2467   C    0.26799   0.16297   0.70516   1.000
    C2468   C    0.29961   0.14404   0.66831   1.000
    C2469   C    0.29240   0.15870   0.68530   1.000
    C2470   C    0.26152   0.17681   0.72083   1.000
    C2471   C    0.27199   0.20310   0.73261   1.000
    C2472   C    0.27927   0.18675   0.71726   1.000
    C2473   C    0.31016   0.16851   0.68190   1.000
    C2474   C    0.30374   0.18222   0.69757   1.000
    C2475   C    0.32264   0.28425   0.62099   1.000
    C2476   C    0.31363   0.27520   0.64841   1.000
    C2477   C    0.24194   0.32224   0.53632   1.000
    C2478   C    0.27304   0.34166   0.52830   1.000
    C2479   C    0.24672   0.33972   0.53987   1.000
    C2480   C    0.21750   0.31889   0.54938   1.000
    C2481   C    0.33257   0.07796   0.66808   1.000
    C2482   C    0.19747   0.33299   0.56615   1.000
    C2483   C    0.22638   0.35438   0.55592   1.000
    C2484   C    0.20213   0.35111   0.56881   1.000
    O2485   O    0.46103   0.42559   0.50214   1.000
    O2486   O    0.36883   0.33327   0.52525   1.000
    O2487   O    0.44352   0.40801   0.48477   1.000
    O2488   O    0.38370   0.30637   0.49673   1.000
    O2489   O    0.31969   0.36082   0.47176   1.000
    O2490   O    0.25626   0.14341   0.64681   1.000
    O2491   O    0.28098   0.09285   0.64670   1.000
    O2492   O    0.28390   0.13396   0.67277   1.000
    O2493   O    0.32149   0.14205   0.65000   1.000
    O2494   O    0.24927   0.20797   0.74940   1.000
    O2495   O    0.28867   0.21218   0.72771   1.000
    O2496   O    0.33926   0.30379   0.56556   1.000
    O2497   O    0.29346   0.25801   0.70249   1.000
    O2498   O    0.29016   0.33112   0.51111   1.000
    O2499   O    0.35332   0.27746   0.53657   1.000
    O2500   O    0.30855   0.08410   0.67227   1.000
    O2501   O    0.33907   0.15737   0.59943   1.000
    H2502   H    0.47622   0.40729   0.53902   1.000
    H2503   H    0.40917   0.34037   0.51532   1.000
    H2504   H    0.43529   0.36649   0.50073   1.000
    H2505   H    0.38695   0.32174   0.42554   1.000
    H2506   H    0.43236   0.29999   0.47131   1.000
    H2507   H    0.21061   0.17176   0.66698   1.000
    H2508   H    0.23842   0.19950   0.58290   1.000
    H2509   H    0.25374   0.15579   0.70849   1.000
    H2510   H    0.24241   0.17998   0.73557   1.000
    H2511   H    0.32917   0.16567   0.66698   1.000
    H2512   H    0.31797   0.18961   0.69394   1.000
    H2513   H    0.34107   0.27242   0.61090   1.000
    H2514   H    0.32549   0.25665   0.65835   1.000
    H2515   H    0.25730   0.31059   0.52408   1.000
    H2516   H    0.21452   0.30483   0.54690   1.000
    H2517   H    0.22928   0.36814   0.55895   1.000
    H2518   H    0.18711   0.36260   0.58131   1.000
    Cr2519  Cr   0.65770   0.94423   0.28384   1.000
    Cr2520  Cr   0.53034   0.80348   0.35963   1.000
    C2521   C    0.54723   0.56944   0.46092   1.000
    C2522   C    0.51247   0.72696   0.39955   1.000
    C2523   C    0.50403   0.70539   0.41455   1.000
    C2524   C    0.42746   0.85054   0.40521   1.000
    C2525   C    0.47489   0.83063   0.38220   1.000
    C2526   C    0.45167   0.83104   0.40641   1.000
    C2527   C    0.45304   0.81170   0.43068   1.000
    C2528   C    0.64843   0.95726   0.20837   1.000
    C2529   C    0.62501   0.96258   0.25305   1.000
    C2530   C    0.62494   0.96494   0.22795   1.000
    C2531   C    0.60143   0.97322   0.22390   1.000
    C2532   C    0.70516   0.86389   0.26799   1.000
    C2533   C    0.66831   0.88804   0.29961   1.000
    C2534   C    0.68530   0.86360   0.29240   1.000
    C2535   C    0.72083   0.84085   0.26152   1.000
    C2536   C    0.73261   0.79230   0.27199   1.000
    C2537   C    0.71726   0.81672   0.27927   1.000
    C2538   C    0.68190   0.83943   0.31016   1.000
    C2539   C    0.69757   0.81647   0.30374   1.000
    C2540   C    0.62099   0.77212   0.32264   1.000
    C2541   C    0.64841   0.76276   0.31363   1.000
    C2542   C    0.53632   0.89950   0.24194   1.000
    C2543   C    0.52830   0.85700   0.27304   1.000
    C2544   C    0.53987   0.87369   0.24672   1.000
    C2545   C    0.54938   0.91423   0.21750   1.000
    C2546   C    0.66808   0.92138   0.33257   1.000
    C2547   C    0.56615   0.90339   0.19747   1.000
    C2548   C    0.55592   0.86331   0.22638   1.000
    C2549   C    0.56881   0.87794   0.20213   1.000
    O2550   O    0.50214   0.61124   0.46103   1.000
    O2551   O    0.52525   0.77265   0.36883   1.000
    O2552   O    0.48477   0.66370   0.44352   1.000
    O2553   O    0.49673   0.81320   0.38370   1.000
    O2554   O    0.47176   0.84773   0.31969   1.000
    O2555   O    0.64681   0.95352   0.25626   1.000
    O2556   O    0.64670   0.97946   0.28098   1.000
    O2557   O    0.67277   0.90937   0.28390   1.000
    O2558   O    0.65000   0.88647   0.32149   1.000
    O2559   O    0.74940   0.79336   0.24927   1.000
    O2560   O    0.72771   0.77143   0.28867   1.000
    O2561   O    0.56556   0.79140   0.33926   1.000
    O2562   O    0.70249   0.74604   0.29346   1.000
    O2563   O    0.51111   0.86762   0.29016   1.000
    O2564   O    0.53657   0.83264   0.35332   1.000
    O2565   O    0.67227   0.93508   0.30855   1.000
    O2566   O    0.59943   0.90414   0.33907   1.000
    H2567   H    0.53902   0.57747   0.47622   1.000
    H2568   H    0.51532   0.73515   0.40917   1.000
    H2569   H    0.50073   0.69749   0.43529   1.000
    H2570   H    0.42554   0.86577   0.38695   1.000
    H2571   H    0.47131   0.79634   0.43236   1.000
    H2572   H    0.66698   0.95064   0.21061   1.000
    H2573   H    0.58290   0.97918   0.23842   1.000
    H2574   H    0.70849   0.88199   0.25374   1.000
    H2575   H    0.73557   0.84203   0.24241   1.000
    H2576   H    0.66698   0.83819   0.32917   1.000
    H2577   H    0.69394   0.79849   0.31797   1.000
    H2578   H    0.61090   0.77561   0.34107   1.000
    H2579   H    0.65835   0.75951   0.32549   1.000
    H2580   H    0.52408   0.90802   0.25730   1.000
    H2581   H    0.54690   0.93376   0.21452   1.000
    H2582   H    0.55895   0.84363   0.22928   1.000
    H2583   H    0.58131   0.86898   0.18711   1.000
    Cr2584  Cr   0.94423   0.65770   0.11423   1.000
    Cr2585  Cr   0.80348   0.53034   0.30656   1.000
    C2586   C    0.56944   0.54723   0.42240   1.000
    C2587   C    0.72696   0.51247   0.36102   1.000
    C2588   C    0.70539   0.50403   0.37603   1.000
    C2589   C    0.85054   0.42746   0.31679   1.000
    C2590   C    0.83063   0.47489   0.31227   1.000
    C2591   C    0.83104   0.45167   0.31089   1.000
    C2592   C    0.81170   0.45304   0.30458   1.000
    C2593   C    0.95726   0.64843   0.18594   1.000
    C2594   C    0.96258   0.62501   0.15936   1.000
    C2595   C    0.96494   0.62494   0.18218   1.000
    C2596   C    0.97322   0.60143   0.20145   1.000
    C2597   C    0.86389   0.70516   0.16297   1.000
    C2598   C    0.88804   0.66831   0.14404   1.000
    C2599   C    0.86360   0.68530   0.15870   1.000
    C2600   C    0.84085   0.72083   0.17681   1.000
    C2601   C    0.79230   0.73261   0.20310   1.000
    C2602   C    0.81672   0.71726   0.18675   1.000
    C2603   C    0.83943   0.68190   0.16851   1.000
    C2604   C    0.81647   0.69757   0.18222   1.000
    C2605   C    0.77212   0.62099   0.28425   1.000
    C2606   C    0.76276   0.64841   0.27520   1.000
    C2607   C    0.89950   0.53632   0.32224   1.000
    C2608   C    0.85700   0.52830   0.34166   1.000
    C2609   C    0.87369   0.53987   0.33972   1.000
    C2610   C    0.91423   0.54938   0.31889   1.000
    C2611   C    0.92138   0.66808   0.07796   1.000
    C2612   C    0.90339   0.56615   0.33299   1.000
    C2613   C    0.86331   0.55592   0.35438   1.000
    C2614   C    0.87794   0.56881   0.35111   1.000
    O2615   O    0.61124   0.50214   0.42559   1.000
    O2616   O    0.77265   0.52525   0.33327   1.000
    O2617   O    0.66370   0.48477   0.40801   1.000
    O2618   O    0.81320   0.49673   0.30637   1.000
    O2619   O    0.84773   0.47176   0.36082   1.000
    O2620   O    0.95352   0.64681   0.14341   1.000
    O2621   O    0.97946   0.64670   0.09285   1.000
    O2622   O    0.90937   0.67277   0.13396   1.000
    O2623   O    0.88647   0.65000   0.14205   1.000
    O2624   O    0.79336   0.74940   0.20797   1.000
    O2625   O    0.77143   0.72771   0.21218   1.000
    O2626   O    0.79140   0.56556   0.30379   1.000
    O2627   O    0.74604   0.70249   0.25801   1.000
    O2628   O    0.86762   0.51111   0.33112   1.000
    O2629   O    0.83264   0.53657   0.27746   1.000
    O2630   O    0.93508   0.67227   0.08410   1.000
    O2631   O    0.90414   0.59943   0.15737   1.000
    H2632   H    0.57747   0.53902   0.40729   1.000
    H2633   H    0.73515   0.51532   0.34037   1.000
    H2634   H    0.69749   0.50073   0.36649   1.000
    H2635   H    0.86577   0.42554   0.32174   1.000
    H2636   H    0.79634   0.47131   0.29999   1.000
    H2637   H    0.95064   0.66698   0.17176   1.000
    H2638   H    0.97918   0.58290   0.19950   1.000
    H2639   H    0.88199   0.70849   0.15579   1.000
    H2640   H    0.84203   0.73557   0.17998   1.000
    H2641   H    0.83819   0.66698   0.16567   1.000
    H2642   H    0.79849   0.69394   0.18961   1.000
    H2643   H    0.77561   0.61090   0.27242   1.000
    H2644   H    0.75951   0.65835   0.25665   1.000
    H2645   H    0.90802   0.52408   0.31059   1.000
    H2646   H    0.93376   0.54690   0.30483   1.000
    H2647   H    0.84363   0.55895   0.36814   1.000
    H2648   H    0.86898   0.58131   0.36260   1.000
    Cr2649  Cr   0.65770   0.11423   0.94423   1.000
    Cr2650  Cr   0.53034   0.30656   0.80348   1.000
    C2651   C    0.54723   0.42240   0.56944   1.000
    C2652   C    0.51247   0.36102   0.72696   1.000
    C2653   C    0.50403   0.37603   0.70539   1.000
    C2654   C    0.42746   0.31679   0.85054   1.000
    C2655   C    0.47489   0.31227   0.83063   1.000
    C2656   C    0.45167   0.31089   0.83104   1.000
    C2657   C    0.45304   0.30458   0.81170   1.000
    C2658   C    0.64843   0.18594   0.95726   1.000
    C2659   C    0.62501   0.15936   0.96258   1.000
    C2660   C    0.62494   0.18218   0.96494   1.000
    C2661   C    0.60143   0.20145   0.97322   1.000
    C2662   C    0.70516   0.16297   0.86389   1.000
    C2663   C    0.66831   0.14404   0.88804   1.000
    C2664   C    0.68530   0.15870   0.86360   1.000
    C2665   C    0.72083   0.17681   0.84085   1.000
    C2666   C    0.73261   0.20310   0.79230   1.000
    C2667   C    0.71726   0.18675   0.81672   1.000
    C2668   C    0.68190   0.16851   0.83943   1.000
    C2669   C    0.69757   0.18222   0.81647   1.000
    C2670   C    0.62099   0.28425   0.77212   1.000
    C2671   C    0.64841   0.27520   0.76276   1.000
    C2672   C    0.53632   0.32224   0.89950   1.000
    C2673   C    0.52830   0.34166   0.85700   1.000
    C2674   C    0.53987   0.33972   0.87369   1.000
    C2675   C    0.54938   0.31889   0.91423   1.000
    C2676   C    0.66808   0.07796   0.92138   1.000
    C2677   C    0.56615   0.33299   0.90339   1.000
    C2678   C    0.55592   0.35438   0.86331   1.000
    C2679   C    0.56881   0.35111   0.87794   1.000
    O2680   O    0.50214   0.42559   0.61124   1.000
    O2681   O    0.52525   0.33327   0.77265   1.000
    O2682   O    0.48477   0.40801   0.66370   1.000
    O2683   O    0.49673   0.30637   0.81320   1.000
    O2684   O    0.47176   0.36082   0.84773   1.000
    O2685   O    0.64681   0.14341   0.95352   1.000
    O2686   O    0.64670   0.09285   0.97946   1.000
    O2687   O    0.67277   0.13396   0.90937   1.000
    O2688   O    0.65000   0.14205   0.88647   1.000
    O2689   O    0.74940   0.20797   0.79336   1.000
    O2690   O    0.72771   0.21218   0.77143   1.000
    O2691   O    0.56556   0.30379   0.79140   1.000
    O2692   O    0.70249   0.25801   0.74604   1.000
    O2693   O    0.51111   0.33112   0.86762   1.000
    O2694   O    0.53657   0.27746   0.83264   1.000
    O2695   O    0.67227   0.08410   0.93508   1.000
    O2696   O    0.59943   0.15737   0.90414   1.000
    H2697   H    0.53902   0.40729   0.57747   1.000
    H2698   H    0.51532   0.34037   0.73515   1.000
    H2699   H    0.50073   0.36649   0.69749   1.000
    H2700   H    0.42554   0.32174   0.86577   1.000
    H2701   H    0.47131   0.29999   0.79634   1.000
    H2702   H    0.66698   0.17176   0.95064   1.000
    H2703   H    0.58290   0.19950   0.97918   1.000
    H2704   H    0.70849   0.15579   0.88199   1.000
    H2705   H    0.73557   0.17998   0.84203   1.000
    H2706   H    0.66698   0.16567   0.83819   1.000
    H2707   H    0.69394   0.18961   0.79849   1.000
    H2708   H    0.61090   0.27242   0.77561   1.000
    H2709   H    0.65835   0.25665   0.75951   1.000
    H2710   H    0.52408   0.31059   0.90802   1.000
    H2711   H    0.54690   0.30483   0.93376   1.000
    H2712   H    0.55895   0.36814   0.84363   1.000
    H2713   H    0.58131   0.36260   0.86898   1.000
    Cr2714  Cr   0.94423   0.28384   0.65770   1.000
    Cr2715  Cr   0.80348   0.35963   0.53034   1.000
    C2716   C    0.56944   0.46092   0.54723   1.000
    C2717   C    0.72696   0.39955   0.51247   1.000
    C2718   C    0.70539   0.41455   0.50403   1.000
    C2719   C    0.85054   0.40521   0.42746   1.000
    C2720   C    0.83063   0.38220   0.47489   1.000
    C2721   C    0.83104   0.40641   0.45167   1.000
    C2722   C    0.81170   0.43068   0.45304   1.000
    C2723   C    0.95726   0.20837   0.64843   1.000
    C2724   C    0.96258   0.25305   0.62501   1.000
    C2725   C    0.96494   0.22795   0.62494   1.000
    C2726   C    0.97322   0.22390   0.60143   1.000
    C2727   C    0.86389   0.26799   0.70516   1.000
    C2728   C    0.88804   0.29961   0.66831   1.000
    C2729   C    0.86360   0.29240   0.68530   1.000
    C2730   C    0.84085   0.26152   0.72083   1.000
    C2731   C    0.79230   0.27199   0.73261   1.000
    C2732   C    0.81672   0.27927   0.71726   1.000
    C2733   C    0.83943   0.31016   0.68190   1.000
    C2734   C    0.81647   0.30374   0.69757   1.000
    C2735   C    0.77212   0.32264   0.62099   1.000
    C2736   C    0.76276   0.31363   0.64841   1.000
    C2737   C    0.89950   0.24194   0.53632   1.000
    C2738   C    0.85700   0.27304   0.52830   1.000
    C2739   C    0.87369   0.24672   0.53987   1.000
    C2740   C    0.91423   0.21750   0.54938   1.000
    C2741   C    0.92138   0.33257   0.66808   1.000
    C2742   C    0.90339   0.19747   0.56615   1.000
    C2743   C    0.86331   0.22638   0.55592   1.000
    C2744   C    0.87794   0.20213   0.56881   1.000
    O2745   O    0.61124   0.46103   0.50214   1.000
    O2746   O    0.77265   0.36883   0.52525   1.000
    O2747   O    0.66370   0.44352   0.48477   1.000
    O2748   O    0.81320   0.38370   0.49673   1.000
    O2749   O    0.84773   0.31969   0.47176   1.000
    O2750   O    0.95352   0.25626   0.64681   1.000
    O2751   O    0.97946   0.28098   0.64670   1.000
    O2752   O    0.90937   0.28390   0.67277   1.000
    O2753   O    0.88647   0.32149   0.65000   1.000
    O2754   O    0.79336   0.24927   0.74940   1.000
    O2755   O    0.77143   0.28867   0.72771   1.000
    O2756   O    0.79140   0.33926   0.56556   1.000
    O2757   O    0.74604   0.29346   0.70249   1.000
    O2758   O    0.86762   0.29016   0.51111   1.000
    O2759   O    0.83264   0.35332   0.53657   1.000
    O2760   O    0.93508   0.30855   0.67227   1.000
    O2761   O    0.90414   0.33907   0.59943   1.000
    H2762   H    0.57747   0.47622   0.53902   1.000
    H2763   H    0.73515   0.40917   0.51532   1.000
    H2764   H    0.69749   0.43529   0.50073   1.000
    H2765   H    0.86577   0.38695   0.42554   1.000
    H2766   H    0.79634   0.43236   0.47131   1.000
    H2767   H    0.95064   0.21061   0.66698   1.000
    H2768   H    0.97918   0.23842   0.58290   1.000
    H2769   H    0.88199   0.25374   0.70849   1.000
    H2770   H    0.84203   0.24241   0.73557   1.000
    H2771   H    0.83819   0.32917   0.66698   1.000
    H2772   H    0.79849   0.31797   0.69394   1.000
    H2773   H    0.77561   0.34107   0.61090   1.000
    H2774   H    0.75951   0.32549   0.65835   1.000
    H2775   H    0.90802   0.25730   0.52408   1.000
    H2776   H    0.93376   0.21452   0.54690   1.000
    H2777   H    0.84363   0.22928   0.55895   1.000
    H2778   H    0.86898   0.18711   0.58131   1.000
    Cr2779  Cr   0.11423   0.65770   0.28384   1.000
    Cr2780  Cr   0.30656   0.53034   0.35963   1.000
    C2781   C    0.42240   0.54723   0.46092   1.000
    C2782   C    0.36102   0.51247   0.39955   1.000
    C2783   C    0.37603   0.50403   0.41455   1.000
    C2784   C    0.31679   0.42746   0.40521   1.000
    C2785   C    0.31227   0.47489   0.38220   1.000
    C2786   C    0.31089   0.45167   0.40641   1.000
    C2787   C    0.30458   0.45304   0.43068   1.000
    C2788   C    0.18594   0.64843   0.20837   1.000
    C2789   C    0.15936   0.62501   0.25305   1.000
    C2790   C    0.18218   0.62494   0.22795   1.000
    C2791   C    0.20145   0.60143   0.22390   1.000
    C2792   C    0.16297   0.70516   0.26799   1.000
    C2793   C    0.14404   0.66831   0.29961   1.000
    C2794   C    0.15870   0.68530   0.29240   1.000
    C2795   C    0.17681   0.72083   0.26152   1.000
    C2796   C    0.20310   0.73261   0.27199   1.000
    C2797   C    0.18675   0.71726   0.27927   1.000
    C2798   C    0.16851   0.68190   0.31016   1.000
    C2799   C    0.18222   0.69757   0.30374   1.000
    C2800   C    0.28425   0.62099   0.32264   1.000
    C2801   C    0.27520   0.64841   0.31363   1.000
    C2802   C    0.32224   0.53632   0.24194   1.000
    C2803   C    0.34166   0.52830   0.27304   1.000
    C2804   C    0.33972   0.53987   0.24672   1.000
    C2805   C    0.31889   0.54938   0.21750   1.000
    C2806   C    0.07796   0.66808   0.33257   1.000
    C2807   C    0.33299   0.56615   0.19747   1.000
    C2808   C    0.35438   0.55592   0.22638   1.000
    C2809   C    0.35111   0.56881   0.20213   1.000
    O2810   O    0.42559   0.50214   0.46103   1.000
    O2811   O    0.33327   0.52525   0.36883   1.000
    O2812   O    0.40801   0.48477   0.44352   1.000
    O2813   O    0.30637   0.49673   0.38370   1.000
    O2814   O    0.36082   0.47176   0.31969   1.000
    O2815   O    0.14341   0.64681   0.25626   1.000
    O2816   O    0.09285   0.64670   0.28098   1.000
    O2817   O    0.13396   0.67277   0.28390   1.000
    O2818   O    0.14205   0.65000   0.32149   1.000
    O2819   O    0.20797   0.74940   0.24927   1.000
    O2820   O    0.21218   0.72771   0.28867   1.000
    O2821   O    0.30379   0.56556   0.33926   1.000
    O2822   O    0.25801   0.70249   0.29346   1.000
    O2823   O    0.33112   0.51111   0.29016   1.000
    O2824   O    0.27746   0.53657   0.35332   1.000
    O2825   O    0.08410   0.67227   0.30855   1.000
    O2826   O    0.15737   0.59943   0.33907   1.000
    H2827   H    0.40729   0.53902   0.47622   1.000
    H2828   H    0.34037   0.51532   0.40917   1.000
    H2829   H    0.36649   0.50073   0.43529   1.000
    H2830   H    0.32174   0.42554   0.38695   1.000
    H2831   H    0.29999   0.47131   0.43236   1.000
    H2832   H    0.17176   0.66698   0.21061   1.000
    H2833   H    0.19950   0.58290   0.23842   1.000
    H2834   H    0.15579   0.70849   0.25374   1.000
    H2835   H    0.17998   0.73557   0.24241   1.000
    H2836   H    0.16567   0.66698   0.32917   1.000
    H2837   H    0.18961   0.69394   0.31797   1.000
    H2838   H    0.27242   0.61090   0.34107   1.000
    H2839   H    0.25665   0.65835   0.32549   1.000
    H2840   H    0.31059   0.52408   0.25730   1.000
    H2841   H    0.30483   0.54690   0.21452   1.000
    H2842   H    0.36814   0.55895   0.22928   1.000
    H2843   H    0.36260   0.58131   0.18711   1.000
    Cr2844  Cr   0.28384   0.94423   0.11423   1.000
    Cr2845  Cr   0.35963   0.80348   0.30656   1.000
    C2846   C    0.46092   0.56944   0.42240   1.000
    C2847   C    0.39955   0.72696   0.36102   1.000
    C2848   C    0.41455   0.70539   0.37603   1.000
    C2849   C    0.40521   0.85054   0.31679   1.000
    C2850   C    0.38220   0.83063   0.31227   1.000
    C2851   C    0.40641   0.83104   0.31089   1.000
    C2852   C    0.43068   0.81170   0.30458   1.000
    C2853   C    0.20837   0.95726   0.18594   1.000
    C2854   C    0.25305   0.96258   0.15936   1.000
    C2855   C    0.22795   0.96494   0.18218   1.000
    C2856   C    0.22390   0.97322   0.20145   1.000
    C2857   C    0.26799   0.86389   0.16297   1.000
    C2858   C    0.29961   0.88804   0.14404   1.000
    C2859   C    0.29240   0.86360   0.15870   1.000
    C2860   C    0.26152   0.84085   0.17681   1.000
    C2861   C    0.27199   0.79230   0.20310   1.000
    C2862   C    0.27927   0.81672   0.18675   1.000
    C2863   C    0.31016   0.83943   0.16851   1.000
    C2864   C    0.30374   0.81647   0.18222   1.000
    C2865   C    0.32264   0.77212   0.28425   1.000
    C2866   C    0.31363   0.76276   0.27520   1.000
    C2867   C    0.24194   0.89950   0.32224   1.000
    C2868   C    0.27304   0.85700   0.34166   1.000
    C2869   C    0.24672   0.87369   0.33972   1.000
    C2870   C    0.21750   0.91423   0.31889   1.000
    C2871   C    0.33257   0.92138   0.07796   1.000
    C2872   C    0.19747   0.90339   0.33299   1.000
    C2873   C    0.22638   0.86331   0.35438   1.000
    C2874   C    0.20213   0.87794   0.35111   1.000
    O2875   O    0.46103   0.61124   0.42559   1.000
    O2876   O    0.36883   0.77265   0.33327   1.000
    O2877   O    0.44352   0.66370   0.40801   1.000
    O2878   O    0.38370   0.81320   0.30637   1.000
    O2879   O    0.31969   0.84773   0.36082   1.000
    O2880   O    0.25626   0.95352   0.14341   1.000
    O2881   O    0.28098   0.97946   0.09285   1.000
    O2882   O    0.28390   0.90937   0.13396   1.000
    O2883   O    0.32149   0.88647   0.14205   1.000
    O2884   O    0.24927   0.79336   0.20797   1.000
    O2885   O    0.28867   0.77143   0.21218   1.000
    O2886   O    0.33926   0.79140   0.30379   1.000
    O2887   O    0.29346   0.74604   0.25801   1.000
    O2888   O    0.29016   0.86762   0.33112   1.000
    O2889   O    0.35332   0.83264   0.27746   1.000
    O2890   O    0.30855   0.93508   0.08410   1.000
    O2891   O    0.33907   0.90414   0.15737   1.000
    H2892   H    0.47622   0.57747   0.40729   1.000
    H2893   H    0.40917   0.73515   0.34037   1.000
    H2894   H    0.43529   0.69749   0.36649   1.000
    H2895   H    0.38695   0.86577   0.32174   1.000
    H2896   H    0.43236   0.79634   0.29999   1.000
    H2897   H    0.21061   0.95064   0.17176   1.000
    H2898   H    0.23842   0.97918   0.19950   1.000
    H2899   H    0.25374   0.88199   0.15579   1.000
    H2900   H    0.24241   0.84203   0.17998   1.000
    H2901   H    0.32917   0.83819   0.16567   1.000
    H2902   H    0.31797   0.79849   0.18961   1.000
    H2903   H    0.34107   0.77561   0.27242   1.000
    H2904   H    0.32549   0.75951   0.25665   1.000
    H2905   H    0.25730   0.90802   0.31059   1.000
    H2906   H    0.21452   0.93376   0.30483   1.000
    H2907   H    0.22928   0.84363   0.36814   1.000
    H2908   H    0.18711   0.86898   0.36260   1.000
    Cr2909  Cr   0.28384   0.65770   0.94423   1.000
    Cr2910  Cr   0.35963   0.53034   0.80348   1.000
    C2911   C    0.46092   0.54723   0.56944   1.000
    C2912   C    0.39955   0.51247   0.72696   1.000
    C2913   C    0.41455   0.50403   0.70539   1.000
    C2914   C    0.40521   0.42746   0.85054   1.000
    C2915   C    0.38220   0.47489   0.83063   1.000
    C2916   C    0.40641   0.45167   0.83104   1.000
    C2917   C    0.43068   0.45304   0.81170   1.000
    C2918   C    0.20837   0.64843   0.95726   1.000
    C2919   C    0.25305   0.62501   0.96258   1.000
    C2920   C    0.22795   0.62494   0.96494   1.000
    C2921   C    0.22390   0.60143   0.97322   1.000
    C2922   C    0.26799   0.70516   0.86389   1.000
    C2923   C    0.29961   0.66831   0.88804   1.000
    C2924   C    0.29240   0.68530   0.86360   1.000
    C2925   C    0.26152   0.72083   0.84085   1.000
    C2926   C    0.27199   0.73261   0.79230   1.000
    C2927   C    0.27927   0.71726   0.81672   1.000
    C2928   C    0.31016   0.68190   0.83943   1.000
    C2929   C    0.30374   0.69757   0.81647   1.000
    C2930   C    0.32264   0.62099   0.77212   1.000
    C2931   C    0.31363   0.64841   0.76276   1.000
    C2932   C    0.24194   0.53632   0.89950   1.000
    C2933   C    0.27304   0.52830   0.85700   1.000
    C2934   C    0.24672   0.53987   0.87369   1.000
    C2935   C    0.21750   0.54938   0.91423   1.000
    C2936   C    0.33257   0.66808   0.92138   1.000
    C2937   C    0.19747   0.56615   0.90339   1.000
    C2938   C    0.22638   0.55592   0.86331   1.000
    C2939   C    0.20213   0.56881   0.87794   1.000
    O2940   O    0.46103   0.50214   0.61124   1.000
    O2941   O    0.36883   0.52525   0.77265   1.000
    O2942   O    0.44352   0.48477   0.66370   1.000
    O2943   O    0.38370   0.49673   0.81320   1.000
    O2944   O    0.31969   0.47176   0.84773   1.000
    O2945   O    0.25626   0.64681   0.95352   1.000
    O2946   O    0.28098   0.64670   0.97946   1.000
    O2947   O    0.28390   0.67277   0.90937   1.000
    O2948   O    0.32149   0.65000   0.88647   1.000
    O2949   O    0.24927   0.74940   0.79336   1.000
    O2950   O    0.28867   0.72771   0.77143   1.000
    O2951   O    0.33926   0.56556   0.79140   1.000
    O2952   O    0.29346   0.70249   0.74604   1.000
    O2953   O    0.29016   0.51111   0.86762   1.000
    O2954   O    0.35332   0.53657   0.83264   1.000
    O2955   O    0.30855   0.67227   0.93508   1.000
    O2956   O    0.33907   0.59943   0.90414   1.000
    H2957   H    0.47622   0.53902   0.57747   1.000
    H2958   H    0.40917   0.51532   0.73515   1.000
    H2959   H    0.43529   0.50073   0.69749   1.000
    H2960   H    0.38695   0.42554   0.86577   1.000
    H2961   H    0.43236   0.47131   0.79634   1.000
    H2962   H    0.21061   0.66698   0.95064   1.000
    H2963   H    0.23842   0.58290   0.97918   1.000
    H2964   H    0.25374   0.70849   0.88199   1.000
    H2965   H    0.24241   0.73557   0.84203   1.000
    H2966   H    0.32917   0.66698   0.83819   1.000
    H2967   H    0.31797   0.69394   0.79849   1.000
    H2968   H    0.34107   0.61090   0.77561   1.000
    H2969   H    0.32549   0.65835   0.75951   1.000
    H2970   H    0.25730   0.52408   0.90802   1.000
    H2971   H    0.21452   0.54690   0.93376   1.000
    H2972   H    0.22928   0.55895   0.84363   1.000
    H2973   H    0.18711   0.58131   0.86898   1.000
    Cr2974  Cr   0.11423   0.94423   0.65770   1.000
    Cr2975  Cr   0.30656   0.80348   0.53034   1.000
    C2976   C    0.42240   0.56944   0.54723   1.000
    C2977   C    0.36102   0.72696   0.51247   1.000
    C2978   C    0.37603   0.70539   0.50403   1.000
    C2979   C    0.31679   0.85054   0.42746   1.000
    C2980   C    0.31227   0.83063   0.47489   1.000
    C2981   C    0.31089   0.83104   0.45167   1.000
    C2982   C    0.30458   0.81170   0.45304   1.000
    C2983   C    0.18594   0.95726   0.64843   1.000
    C2984   C    0.15936   0.96258   0.62501   1.000
    C2985   C    0.18218   0.96494   0.62494   1.000
    C2986   C    0.20145   0.97322   0.60143   1.000
    C2987   C    0.16297   0.86389   0.70516   1.000
    C2988   C    0.14404   0.88804   0.66831   1.000
    C2989   C    0.15870   0.86360   0.68530   1.000
    C2990   C    0.17681   0.84085   0.72083   1.000
    C2991   C    0.20310   0.79230   0.73261   1.000
    C2992   C    0.18675   0.81672   0.71726   1.000
    C2993   C    0.16851   0.83943   0.68190   1.000
    C2994   C    0.18222   0.81647   0.69757   1.000
    C2995   C    0.28425   0.77212   0.62099   1.000
    C2996   C    0.27520   0.76276   0.64841   1.000
    C2997   C    0.32224   0.89950   0.53632   1.000
    C2998   C    0.34166   0.85700   0.52830   1.000
    C2999   C    0.33972   0.87369   0.53987   1.000
    C3000   C    0.31889   0.91423   0.54938   1.000
    C3001   C    0.07796   0.92138   0.66808   1.000
    C3002   C    0.33299   0.90339   0.56615   1.000
    C3003   C    0.35438   0.86331   0.55592   1.000
    C3004   C    0.35111   0.87794   0.56881   1.000
    O3005   O    0.42559   0.61124   0.50214   1.000
    O3006   O    0.33327   0.77265   0.52525   1.000
    O3007   O    0.40801   0.66370   0.48477   1.000
    O3008   O    0.30637   0.81320   0.49673   1.000
    O3009   O    0.36082   0.84773   0.47176   1.000
    O3010   O    0.14341   0.95352   0.64681   1.000
    O3011   O    0.09285   0.97946   0.64670   1.000
    O3012   O    0.13396   0.90937   0.67277   1.000
    O3013   O    0.14205   0.88647   0.65000   1.000
    O3014   O    0.20797   0.79336   0.74940   1.000
    O3015   O    0.21218   0.77143   0.72771   1.000
    O3016   O    0.30379   0.79140   0.56556   1.000
    O3017   O    0.25801   0.74604   0.70249   1.000
    O3018   O    0.33112   0.86762   0.51111   1.000
    O3019   O    0.27746   0.83264   0.53657   1.000
    O3020   O    0.08410   0.93508   0.67227   1.000
    O3021   O    0.15737   0.90414   0.59943   1.000
    H3022   H    0.40729   0.57747   0.53902   1.000
    H3023   H    0.34037   0.73515   0.51532   1.000
    H3024   H    0.36649   0.69749   0.50073   1.000
    H3025   H    0.32174   0.86577   0.42554   1.000
    H3026   H    0.29999   0.79634   0.47131   1.000
    H3027   H    0.17176   0.95064   0.66698   1.000
    H3028   H    0.19950   0.97918   0.58290   1.000
    H3029   H    0.15579   0.88199   0.70849   1.000
    H3030   H    0.17998   0.84203   0.73557   1.000
    H3031   H    0.16567   0.83819   0.66698   1.000
    H3032   H    0.18961   0.79849   0.69394   1.000
    H3033   H    0.27242   0.77561   0.61090   1.000
    H3034   H    0.25665   0.75951   0.65835   1.000
    H3035   H    0.31059   0.90802   0.52408   1.000
    H3036   H    0.30483   0.93376   0.54690   1.000
    H3037   H    0.36814   0.84363   0.55895   1.000
    H3038   H    0.36260   0.86898   0.58131   1.000
    Cr3039  Cr   0.94423   0.11423   0.28384   1.000
    Cr3040  Cr   0.80348   0.30656   0.35963   1.000
    C3041   C    0.56944   0.42240   0.46092   1.000
    C3042   C    0.72696   0.36102   0.39955   1.000
    C3043   C    0.70539   0.37603   0.41455   1.000
    C3044   C    0.85054   0.31679   0.40521   1.000
    C3045   C    0.83063   0.31227   0.38220   1.000
    C3046   C    0.83104   0.31089   0.40641   1.000
    C3047   C    0.81170   0.30458   0.43068   1.000
    C3048   C    0.95726   0.18594   0.20837   1.000
    C3049   C    0.96258   0.15936   0.25305   1.000
    C3050   C    0.96494   0.18218   0.22795   1.000
    C3051   C    0.97322   0.20145   0.22390   1.000
    C3052   C    0.86389   0.16297   0.26799   1.000
    C3053   C    0.88804   0.14404   0.29961   1.000
    C3054   C    0.86360   0.15870   0.29240   1.000
    C3055   C    0.84085   0.17681   0.26152   1.000
    C3056   C    0.79230   0.20310   0.27199   1.000
    C3057   C    0.81672   0.18675   0.27927   1.000
    C3058   C    0.83943   0.16851   0.31016   1.000
    C3059   C    0.81647   0.18222   0.30374   1.000
    C3060   C    0.77212   0.28425   0.32264   1.000
    C3061   C    0.76276   0.27520   0.31363   1.000
    C3062   C    0.89950   0.32224   0.24194   1.000
    C3063   C    0.85700   0.34166   0.27304   1.000
    C3064   C    0.87369   0.33972   0.24672   1.000
    C3065   C    0.91423   0.31889   0.21750   1.000
    C3066   C    0.92138   0.07796   0.33257   1.000
    C3067   C    0.90339   0.33299   0.19747   1.000
    C3068   C    0.86331   0.35438   0.22638   1.000
    C3069   C    0.87794   0.35111   0.20213   1.000
    O3070   O    0.61124   0.42559   0.46103   1.000
    O3071   O    0.77265   0.33327   0.36883   1.000
    O3072   O    0.66370   0.40801   0.44352   1.000
    O3073   O    0.81320   0.30637   0.38370   1.000
    O3074   O    0.84773   0.36082   0.31969   1.000
    O3075   O    0.95352   0.14341   0.25626   1.000
    O3076   O    0.97946   0.09285   0.28098   1.000
    O3077   O    0.90937   0.13396   0.28390   1.000
    O3078   O    0.88647   0.14205   0.32149   1.000
    O3079   O    0.79336   0.20797   0.24927   1.000
    O3080   O    0.77143   0.21218   0.28867   1.000
    O3081   O    0.79140   0.30379   0.33926   1.000
    O3082   O    0.74604   0.25801   0.29346   1.000
    O3083   O    0.86762   0.33112   0.29016   1.000
    O3084   O    0.83264   0.27746   0.35332   1.000
    O3085   O    0.93508   0.08410   0.30855   1.000
    O3086   O    0.90414   0.15737   0.33907   1.000
    H3087   H    0.57747   0.40729   0.47622   1.000
    H3088   H    0.73515   0.34037   0.40917   1.000
    H3089   H    0.69749   0.36649   0.43529   1.000
    H3090   H    0.86577   0.32174   0.38695   1.000
    H3091   H    0.79634   0.29999   0.43236   1.000
    H3092   H    0.95064   0.17176   0.21061   1.000
    H3093   H    0.97918   0.19950   0.23842   1.000
    H3094   H    0.88199   0.15579   0.25374   1.000
    H3095   H    0.84203   0.17998   0.24241   1.000
    H3096   H    0.83819   0.16567   0.32917   1.000
    H3097   H    0.79849   0.18961   0.31797   1.000
    H3098   H    0.77561   0.27242   0.34107   1.000
    H3099   H    0.75951   0.25665   0.32549   1.000
    H3100   H    0.90802   0.31059   0.25730   1.000
    H3101   H    0.93376   0.30483   0.21452   1.000
    H3102   H    0.84363   0.36814   0.22928   1.000
    H3103   H    0.86898   0.36260   0.18711   1.000
    Cr3104  Cr   0.65770   0.28384   0.11423   1.000
    Cr3105  Cr   0.53034   0.35963   0.30656   1.000
    C3106   C    0.54723   0.46092   0.42240   1.000
    C3107   C    0.51247   0.39955   0.36102   1.000
    C3108   C    0.50403   0.41455   0.37603   1.000
    C3109   C    0.42746   0.40521   0.31679   1.000
    C3110   C    0.47489   0.38220   0.31227   1.000
    C3111   C    0.45167   0.40641   0.31089   1.000
    C3112   C    0.45304   0.43068   0.30458   1.000
    C3113   C    0.64843   0.20837   0.18594   1.000
    C3114   C    0.62501   0.25305   0.15936   1.000
    C3115   C    0.62494   0.22795   0.18218   1.000
    C3116   C    0.60143   0.22390   0.20145   1.000
    C3117   C    0.70516   0.26799   0.16297   1.000
    C3118   C    0.66831   0.29961   0.14404   1.000
    C3119   C    0.68530   0.29240   0.15870   1.000
    C3120   C    0.72083   0.26152   0.17681   1.000
    C3121   C    0.73261   0.27199   0.20310   1.000
    C3122   C    0.71726   0.27927   0.18675   1.000
    C3123   C    0.68190   0.31016   0.16851   1.000
    C3124   C    0.69757   0.30374   0.18222   1.000
    C3125   C    0.62099   0.32264   0.28425   1.000
    C3126   C    0.64841   0.31363   0.27520   1.000
    C3127   C    0.53632   0.24194   0.32224   1.000
    C3128   C    0.52830   0.27304   0.34166   1.000
    C3129   C    0.53987   0.24672   0.33972   1.000
    C3130   C    0.54938   0.21750   0.31889   1.000
    C3131   C    0.66808   0.33257   0.07796   1.000
    C3132   C    0.56615   0.19747   0.33299   1.000
    C3133   C    0.55592   0.22638   0.35438   1.000
    C3134   C    0.56881   0.20213   0.35111   1.000
    O3135   O    0.50214   0.46103   0.42559   1.000
    O3136   O    0.52525   0.36883   0.33327   1.000
    O3137   O    0.48477   0.44352   0.40801   1.000
    O3138   O    0.49673   0.38370   0.30637   1.000
    O3139   O    0.47176   0.31969   0.36082   1.000
    O3140   O    0.64681   0.25626   0.14341   1.000
    O3141   O    0.64670   0.28098   0.09285   1.000
    O3142   O    0.67277   0.28390   0.13396   1.000
    O3143   O    0.65000   0.32149   0.14205   1.000
    O3144   O    0.74940   0.24927   0.20797   1.000
    O3145   O    0.72771   0.28867   0.21218   1.000
    O3146   O    0.56556   0.33926   0.30379   1.000
    O3147   O    0.70249   0.29346   0.25801   1.000
    O3148   O    0.51111   0.29016   0.33112   1.000
    O3149   O    0.53657   0.35332   0.27746   1.000
    O3150   O    0.67227   0.30855   0.08410   1.000
    O3151   O    0.59943   0.33907   0.15737   1.000
    H3152   H    0.53902   0.47622   0.40729   1.000
    H3153   H    0.51532   0.40917   0.34037   1.000
    H3154   H    0.50073   0.43529   0.36649   1.000
    H3155   H    0.42554   0.38695   0.32174   1.000
    H3156   H    0.47131   0.43236   0.29999   1.000
    H3157   H    0.66698   0.21061   0.17176   1.000
    H3158   H    0.58290   0.23842   0.19950   1.000
    H3159   H    0.70849   0.25374   0.15579   1.000
    H3160   H    0.73557   0.24241   0.17998   1.000
    H3161   H    0.66698   0.32917   0.16567   1.000
    H3162   H    0.69394   0.31797   0.18961   1.000
    H3163   H    0.61090   0.34107   0.27242   1.000
    H3164   H    0.65835   0.32549   0.25665   1.000
    H3165   H    0.52408   0.25730   0.31059   1.000
    H3166   H    0.54690   0.21452   0.30483   1.000
    H3167   H    0.55895   0.22928   0.36814   1.000
    H3168   H    0.58131   0.18711   0.36260   1.000
    Cr3169  Cr   0.41880   0.47185   0.47185   1.000
    Cr3170  Cr   0.47185   0.41880   0.63750   1.000
    Cr3171  Cr   0.47185   0.63750   0.41880   1.000
    Cr3172  Cr   0.63750   0.47185   0.47185   1.000
    Cr3173  Cr   0.47185   0.41880   0.47185   1.000
    Cr3174  Cr   0.63750   0.47185   0.41880   1.000
    Cr3175  Cr   0.41880   0.47185   0.63750   1.000
    Cr3176  Cr   0.47185   0.63750   0.47185   1.000
    Cr3177  Cr   0.47185   0.47185   0.41880   1.000
    Cr3178  Cr   0.41880   0.63750   0.47185   1.000
    Cr3179  Cr   0.63750   0.41880   0.47185   1.000
    Cr3180  Cr   0.47185   0.47185   0.63750   1.000
    Cr3181  Cr   0.83120   0.77815   0.61250   1.000
    Cr3182  Cr   0.77815   0.83120   0.77815   1.000
    Cr3183  Cr   0.77815   0.61250   0.77815   1.000
    Cr3184  Cr   0.61250   0.77815   0.83120   1.000
    Cr3185  Cr   0.77815   0.83120   0.61250   1.000
    Cr3186  Cr   0.61250   0.77815   0.77815   1.000
    Cr3187  Cr   0.83120   0.77815   0.77815   1.000
    Cr3188  Cr   0.77815   0.61250   0.83120   1.000
    Cr3189  Cr   0.77815   0.77815   0.61250   1.000
    Cr3190  Cr   0.83120   0.61250   0.77815   1.000
    Cr3191  Cr   0.61250   0.83120   0.77815   1.000
    Cr3192  Cr   0.77815   0.77815   0.83120   1.000
    Cr3193  Cr   0.12500   0.34065   0.62500   1.000
    O3194   O    0.12500   0.31008   0.62500   1.000
    Cr3195  Cr   0.34065   0.12500   0.90935   1.000
    O3196   O    0.31008   0.12500   0.93992   1.000
    Cr3197  Cr   0.62500   0.90935   0.12500   1.000
    O3198   O    0.62500   0.93992   0.12500   1.000
    Cr3199  Cr   0.90935   0.62500   0.34065   1.000
    O3200   O    0.93992   0.62500   0.31008   1.000
    Cr3201  Cr   0.62500   0.12500   0.34065   1.000
    O3202   O    0.62500   0.12500   0.31008   1.000
    Cr3203  Cr   0.90935   0.34065   0.12500   1.000
    O3204   O    0.93992   0.31008   0.12500   1.000
    Cr3205  Cr   0.12500   0.62500   0.90935   1.000
    O3206   O    0.12500   0.62500   0.93992   1.000
    Cr3207  Cr   0.34065   0.90935   0.62500   1.000
    O3208   O    0.31008   0.93992   0.62500   1.000
    Cr3209  Cr   0.34065   0.62500   0.12500   1.000
    O3210   O    0.31008   0.62500   0.12500   1.000
    Cr3211  Cr   0.12500   0.90935   0.34065   1.000
    O3212   O    0.12500   0.93992   0.31008   1.000
    Cr3213  Cr   0.90935   0.12500   0.62500   1.000
    O3214   O    0.93992   0.12500   0.62500   1.000
    Cr3215  Cr   0.62500   0.34065   0.90935   1.000
    O3216   O    0.62500   0.31008   0.93992   1.000
    Cr3217  Cr   0.12500   0.90935   0.62500   1.000
    Cr3218  Cr   0.73756   0.73756   0.23592   1.000
    Cr3219  Cr   0.73756   0.73756   0.28896   1.000
    Cr3220  Cr   0.73756   0.23592   0.28896   1.000
    Cr3221  Cr   0.73756   0.28896   0.23592   1.000
    Cr3222  Cr   0.23592   0.73756   0.73756   1.000
    Cr3223  Cr   0.28896   0.73756   0.73756   1.000
    Cr3224  Cr   0.28896   0.73756   0.23592   1.000
    Cr3225  Cr   0.23592   0.73756   0.28896   1.000
    Cr3226  Cr   0.73756   0.23592   0.73756   1.000
    Cr3227  Cr   0.73756   0.28896   0.73756   1.000
    Cr3228  Cr   0.01408   0.96104   0.51244   1.000
    Cr3229  Cr   0.96104   0.01408   0.51244   1.000
    Cr3230  Cr   0.51244   0.51244   0.96104   1.000
    Cr3231  Cr   0.51244   0.51244   0.01408   1.000
    Cr3232  Cr   0.51244   0.01408   0.51244   1.000
    Cr3233  Cr   0.51244   0.96104   0.51244   1.000
    Cr3234  Cr   0.01408   0.51244   0.96104   1.000
    Cr3235  Cr   0.96104   0.51244   0.01408   1.000
    Cr3236  Cr   0.96104   0.51244   0.51244   1.000
    Cr3237  Cr   0.01408   0.51244   0.51244   1.000
    Cr3238  Cr   0.51244   0.01408   0.96104   1.000
    Cr3239  Cr   0.51244   0.96104   0.01408   1.000
    Cr3240  Cr   0.32574   0.32574   0.49285   1.000
    C3241   C    0.35723   0.35723   0.52298   1.000
    C3242   C    0.37266   0.37266   0.51646   1.000
    C3243   C    0.41918   0.41918   0.48908   1.000
    C3244   C    0.40303   0.40303   0.49938   1.000
    C3245   C    0.31762   0.31762   0.57750   1.000
    C3246   C    0.30807   0.30807   0.60680   1.000
    C3247   C    0.28000   0.28000   0.69049   1.000
    C3248   C    0.28965   0.28965   0.66272   1.000
    O3249   O    0.33063   0.33063   0.51787   1.000
    Cr3250  Cr   0.32574   0.32574   0.85566   1.000
    C3251   C    0.35723   0.35723   0.76256   1.000
    C3252   C    0.37266   0.37266   0.73822   1.000
    C3253   C    0.41918   0.41918   0.67257   1.000
    C3254   C    0.40303   0.40303   0.69455   1.000
    C3255   C    0.31762   0.31762   0.78725   1.000
    C3256   C    0.30807   0.30807   0.77705   1.000
    C3257   C    0.28000   0.28000   0.74951   1.000
    C3258   C    0.28965   0.28965   0.75798   1.000
    O3259   O    0.33063   0.33063   0.82086   1.000
    Cr3260  Cr   0.49285   0.85566   0.32574   1.000
    C3261   C    0.52298   0.76256   0.35723   1.000
    C3262   C    0.51646   0.73822   0.37266   1.000
    C3263   C    0.48908   0.67257   0.41918   1.000
    C3264   C    0.49938   0.69455   0.40303   1.000
    C3265   C    0.57750   0.78725   0.31762   1.000
    C3266   C    0.60680   0.77705   0.30807   1.000
    C3267   C    0.69049   0.74951   0.28000   1.000
    C3268   C    0.66272   0.75798   0.28965   1.000
    O3269   O    0.51787   0.82086   0.33063   1.000
    Cr3270  Cr   0.85566   0.49285   0.32574   1.000
    C3271   C    0.76256   0.52298   0.35723   1.000
    C3272   C    0.73822   0.51646   0.37266   1.000
    C3273   C    0.67257   0.48908   0.41918   1.000
    C3274   C    0.69455   0.49938   0.40303   1.000
    C3275   C    0.78725   0.57750   0.31762   1.000
    C3276   C    0.77705   0.60680   0.30807   1.000
    C3277   C    0.74951   0.69049   0.28000   1.000
    C3278   C    0.75798   0.66272   0.28965   1.000
    O3279   O    0.82086   0.51787   0.33063   1.000
    Cr3280  Cr   0.49285   0.32574   0.32574   1.000
    C3281   C    0.52298   0.35723   0.35723   1.000
    C3282   C    0.51646   0.37266   0.37266   1.000
    C3283   C    0.48908   0.41918   0.41918   1.000
    C3284   C    0.49938   0.40303   0.40303   1.000
    C3285   C    0.57750   0.31762   0.31762   1.000
    C3286   C    0.60680   0.30807   0.30807   1.000
    C3287   C    0.69049   0.28000   0.28000   1.000
    C3288   C    0.66272   0.28965   0.28965   1.000
    O3289   O    0.51787   0.33063   0.33063   1.000
    Cr3290  Cr   0.85566   0.32574   0.32574   1.000
    C3291   C    0.76256   0.35723   0.35723   1.000
    C3292   C    0.73822   0.37266   0.37266   1.000
    C3293   C    0.67257   0.41918   0.41918   1.000
    C3294   C    0.69455   0.40303   0.40303   1.000
    C3295   C    0.78725   0.31762   0.31762   1.000
    C3296   C    0.77705   0.30807   0.30807   1.000
    C3297   C    0.74951   0.28000   0.28000   1.000
    C3298   C    0.75798   0.28965   0.28965   1.000
    O3299   O    0.82086   0.33063   0.33063   1.000
    Cr3300  Cr   0.32574   0.49285   0.85566   1.000
    C3301   C    0.35723   0.52298   0.76256   1.000
    C3302   C    0.37266   0.51646   0.73822   1.000
    C3303   C    0.41918   0.48908   0.67257   1.000
    C3304   C    0.40303   0.49938   0.69455   1.000
    C3305   C    0.31762   0.57750   0.78725   1.000
    C3306   C    0.30807   0.60680   0.77705   1.000
    C3307   C    0.28000   0.69049   0.74951   1.000
    C3308   C    0.28965   0.66272   0.75798   1.000
    O3309   O    0.33063   0.51787   0.82086   1.000
    Cr3310  Cr   0.32574   0.85566   0.49285   1.000
    C3311   C    0.35723   0.76256   0.52298   1.000
    C3312   C    0.37266   0.73822   0.51646   1.000
    C3313   C    0.41918   0.67257   0.48908   1.000
    C3314   C    0.40303   0.69455   0.49938   1.000
    C3315   C    0.31762   0.78725   0.57750   1.000
    C3316   C    0.30807   0.77705   0.60680   1.000
    C3317   C    0.28000   0.74951   0.69049   1.000
    C3318   C    0.28965   0.75798   0.66272   1.000
    O3319   O    0.33063   0.82086   0.51787   1.000
    Cr3320  Cr   0.32574   0.49285   0.32574   1.000
    C3321   C    0.35723   0.52298   0.35723   1.000
    C3322   C    0.37266   0.51646   0.37266   1.000
    C3323   C    0.41918   0.48908   0.41918   1.000
    C3324   C    0.40303   0.49938   0.40303   1.000
    C3325   C    0.31762   0.57750   0.31762   1.000
    C3326   C    0.30807   0.60680   0.30807   1.000
    C3327   C    0.28000   0.69049   0.28000   1.000
    C3328   C    0.28965   0.66272   0.28965   1.000
    O3329   O    0.33063   0.51787   0.33063   1.000
    Cr3330  Cr   0.32574   0.85566   0.32574   1.000
    C3331   C    0.35723   0.76256   0.35723   1.000
    C3332   C    0.37266   0.73822   0.37266   1.000
    C3333   C    0.41918   0.67257   0.41918   1.000
    C3334   C    0.40303   0.69455   0.40303   1.000
    C3335   C    0.31762   0.78725   0.31762   1.000
    C3336   C    0.30807   0.77705   0.30807   1.000
    C3337   C    0.28000   0.74951   0.28000   1.000
    C3338   C    0.28965   0.75798   0.28965   1.000
    O3339   O    0.33063   0.82086   0.33063   1.000
    Cr3340  Cr   0.85566   0.32574   0.49285   1.000
    C3341   C    0.76256   0.35723   0.52298   1.000
    C3342   C    0.73822   0.37266   0.51646   1.000
    C3343   C    0.67257   0.41918   0.48908   1.000
    C3344   C    0.69455   0.40303   0.49938   1.000
    C3345   C    0.78725   0.31762   0.57750   1.000
    C3346   C    0.77705   0.30807   0.60680   1.000
    C3347   C    0.74951   0.28000   0.69049   1.000
    C3348   C    0.75798   0.28965   0.66272   1.000
    O3349   O    0.82086   0.33063   0.51787   1.000
    Cr3350  Cr   0.49285   0.32574   0.85566   1.000
    C3351   C    0.52298   0.35723   0.76256   1.000
    C3352   C    0.51646   0.37266   0.73822   1.000
    C3353   C    0.48908   0.41918   0.67257   1.000
    C3354   C    0.49938   0.40303   0.69455   1.000
    C3355   C    0.57750   0.31762   0.78725   1.000
    C3356   C    0.60680   0.30807   0.77705   1.000
    C3357   C    0.69049   0.28000   0.74951   1.000
    C3358   C    0.66272   0.28965   0.75798   1.000
    O3359   O    0.51787   0.33063   0.82086   1.000
    Cr3360  Cr   0.92426   0.92426   0.39434   1.000
    C3361   C    0.89277   0.89277   0.48744   1.000
    C3362   C    0.87734   0.87734   0.51178   1.000
    C3363   C    0.83082   0.83082   0.57743   1.000
    C3364   C    0.84697   0.84697   0.55545   1.000
    C3365   C    0.93238   0.93238   0.46275   1.000
    C3366   C    0.94193   0.94193   0.47295   1.000
    C3367   C    0.97000   0.97000   0.50049   1.000
    C3368   C    0.96035   0.96035   0.49202   1.000
    O3369   O    0.91937   0.91937   0.42914   1.000
    Cr3370  Cr   0.92426   0.92426   0.75715   1.000
    C3371   C    0.89277   0.89277   0.72702   1.000
    C3372   C    0.87734   0.87734   0.73354   1.000
    C3373   C    0.83082   0.83082   0.76092   1.000
    C3374   C    0.84697   0.84697   0.75062   1.000
    C3375   C    0.93238   0.93238   0.67250   1.000
    C3376   C    0.94193   0.94193   0.64320   1.000
    C3377   C    0.97000   0.97000   0.55951   1.000
    C3378   C    0.96035   0.96035   0.58728   1.000
    O3379   O    0.91937   0.91937   0.73213   1.000
    Cr3380  Cr   0.75715   0.39434   0.92426   1.000
    C3381   C    0.72702   0.48744   0.89277   1.000
    C3382   C    0.73354   0.51178   0.87734   1.000
    C3383   C    0.76092   0.57743   0.83082   1.000
    C3384   C    0.75062   0.55545   0.84697   1.000
    C3385   C    0.67250   0.46275   0.93238   1.000
    C3386   C    0.64320   0.47295   0.94193   1.000
    C3387   C    0.55951   0.50049   0.97000   1.000
    C3388   C    0.58728   0.49202   0.96035   1.000
    O3389   O    0.73213   0.42914   0.91937   1.000
    Cr3390  Cr   0.39434   0.75715   0.92426   1.000
    C3391   C    0.48744   0.72702   0.89277   1.000
    C3392   C    0.51178   0.73354   0.87734   1.000
    C3393   C    0.57743   0.76092   0.83082   1.000
    C3394   C    0.55545   0.75062   0.84697   1.000
    C3395   C    0.46275   0.67250   0.93238   1.000
    C3396   C    0.47295   0.64320   0.94193   1.000
    C3397   C    0.50049   0.55951   0.97000   1.000
    C3398   C    0.49202   0.58728   0.96035   1.000
    O3399   O    0.42914   0.73213   0.91937   1.000
    Cr3400  Cr   0.75715   0.92426   0.39434   1.000
    C3401   C    0.72702   0.89277   0.48744   1.000
    C3402   C    0.73354   0.87734   0.51178   1.000
    C3403   C    0.76092   0.83082   0.57743   1.000
    C3404   C    0.75062   0.84697   0.55545   1.000
    C3405   C    0.67250   0.93238   0.46275   1.000
    C3406   C    0.64320   0.94193   0.47295   1.000
    C3407   C    0.55951   0.97000   0.50049   1.000
    C3408   C    0.58728   0.96035   0.49202   1.000
    O3409   O    0.73213   0.91937   0.42914   1.000
    Cr3410  Cr   0.39434   0.92426   0.75715   1.000
    C3411   C    0.48744   0.89277   0.72702   1.000
    C3412   C    0.51178   0.87734   0.73354   1.000
    C3413   C    0.57743   0.83082   0.76092   1.000
    C3414   C    0.55545   0.84697   0.75062   1.000
    C3415   C    0.46275   0.93238   0.67250   1.000
    C3416   C    0.47295   0.94193   0.64320   1.000
    C3417   C    0.50049   0.97000   0.55951   1.000
    C3418   C    0.49202   0.96035   0.58728   1.000
    O3419   O    0.42914   0.91937   0.73213   1.000
    Cr3420  Cr   0.92426   0.75715   0.92426   1.000
    C3421   C    0.89277   0.72702   0.89277   1.000
    C3422   C    0.87734   0.73354   0.87734   1.000
    C3423   C    0.83082   0.76092   0.83082   1.000
    C3424   C    0.84697   0.75062   0.84697   1.000
    C3425   C    0.93238   0.67250   0.93238   1.000
    C3426   C    0.94193   0.64320   0.94193   1.000
    C3427   C    0.97000   0.55951   0.97000   1.000
    C3428   C    0.96035   0.58728   0.96035   1.000
    O3429   O    0.91937   0.73213   0.91937   1.000
    Cr3430  Cr   0.92426   0.39434   0.92426   1.000
    C3431   C    0.89277   0.48744   0.89277   1.000
    C3432   C    0.87734   0.51178   0.87734   1.000
    C3433   C    0.83082   0.57743   0.83082   1.000
    C3434   C    0.84697   0.55545   0.84697   1.000
    C3435   C    0.93238   0.46275   0.93238   1.000
    C3436   C    0.94193   0.47295   0.94193   1.000
    C3437   C    0.97000   0.50049   0.97000   1.000
    C3438   C    0.96035   0.49202   0.96035   1.000
    O3439   O    0.91937   0.42914   0.91937   1.000
    Cr3440  Cr   0.92426   0.75715   0.39434   1.000
    C3441   C    0.89277   0.72702   0.48744   1.000
    C3442   C    0.87734   0.73354   0.51178   1.000
    C3443   C    0.83082   0.76092   0.57743   1.000
    C3444   C    0.84697   0.75062   0.55545   1.000
    C3445   C    0.93238   0.67250   0.46275   1.000
    C3446   C    0.94193   0.64320   0.47295   1.000
    C3447   C    0.97000   0.55951   0.50049   1.000
    C3448   C    0.96035   0.58728   0.49202   1.000
    O3449   O    0.91937   0.73213   0.42914   1.000
    Cr3450  Cr   0.92426   0.39434   0.75715   1.000
    C3451   C    0.89277   0.48744   0.72702   1.000
    C3452   C    0.87734   0.51178   0.73354   1.000
    C3453   C    0.83082   0.57743   0.76092   1.000
    C3454   C    0.84697   0.55545   0.75062   1.000
    C3455   C    0.93238   0.46275   0.67250   1.000
    C3456   C    0.94193   0.47295   0.64320   1.000
    C3457   C    0.97000   0.50049   0.55951   1.000
    C3458   C    0.96035   0.49202   0.58728   1.000
    O3459   O    0.91937   0.42914   0.73213   1.000
    Cr3460  Cr   0.39434   0.92426   0.92426   1.000
    C3461   C    0.48744   0.89277   0.89277   1.000
    C3462   C    0.51178   0.87734   0.87734   1.000
    C3463   C    0.57743   0.83082   0.83082   1.000
    C3464   C    0.55545   0.84697   0.84697   1.000
    C3465   C    0.46275   0.93238   0.93238   1.000
    C3466   C    0.47295   0.94193   0.94193   1.000
    C3467   C    0.50049   0.97000   0.97000   1.000
    C3468   C    0.49202   0.96035   0.96035   1.000
    O3469   O    0.42914   0.91937   0.91937   1.000
    Cr3470  Cr   0.75715   0.92426   0.92426   1.000
    C3471   C    0.72702   0.89277   0.89277   1.000
    C3472   C    0.73354   0.87734   0.87734   1.000
    C3473   C    0.76092   0.83082   0.83082   1.000
    C3474   C    0.75062   0.84697   0.84697   1.000
    C3475   C    0.67250   0.93238   0.93238   1.000
    C3476   C    0.64320   0.94193   0.94193   1.000
    C3477   C    0.55951   0.97000   0.97000   1.000
    C3478   C    0.58728   0.96035   0.96035   1.000
    O3479   O    0.73213   0.91937   0.91937   1.000
    C3480   C    0.44280   0.44280   0.51229   1.000
    C3481   C    0.44188   0.44188   0.53555   1.000
    C3482   C    0.44280   0.44280   0.60211   1.000
    C3483   C    0.44188   0.44188   0.58069   1.000
    C3484   C    0.51229   0.60211   0.44280   1.000
    C3485   C    0.53555   0.58069   0.44188   1.000
    C3486   C    0.60211   0.51229   0.44280   1.000
    C3487   C    0.58069   0.53555   0.44188   1.000
    C3488   C    0.51229   0.44280   0.44280   1.000
    C3489   C    0.53555   0.44188   0.44188   1.000
    C3490   C    0.60211   0.44280   0.44280   1.000
    C3491   C    0.58069   0.44188   0.44188   1.000
    C3492   C    0.44280   0.51229   0.60211   1.000
    C3493   C    0.44188   0.53555   0.58069   1.000
    C3494   C    0.44280   0.60211   0.51229   1.000
    C3495   C    0.44188   0.58069   0.53555   1.000
    C3496   C    0.44280   0.51229   0.44280   1.000
    C3497   C    0.44188   0.53555   0.44188   1.000
    C3498   C    0.44280   0.60211   0.44280   1.000
    C3499   C    0.44188   0.58069   0.44188   1.000
    C3500   C    0.60211   0.44280   0.51229   1.000
    C3501   C    0.58069   0.44188   0.53555   1.000
    C3502   C    0.51229   0.44280   0.60211   1.000
    C3503   C    0.53555   0.44188   0.58069   1.000
    C3504   C    0.80720   0.80720   0.64789   1.000
    C3505   C    0.80812   0.80812   0.66931   1.000
    C3506   C    0.80720   0.80720   0.73771   1.000
    C3507   C    0.80812   0.80812   0.71445   1.000
    C3508   C    0.73771   0.64789   0.80720   1.000
    C3509   C    0.71445   0.66931   0.80812   1.000
    C3510   C    0.64789   0.73771   0.80720   1.000
    C3511   C    0.66931   0.71445   0.80812   1.000
    C3512   C    0.73771   0.80720   0.64789   1.000
    C3513   C    0.71445   0.80812   0.66931   1.000
    C3514   C    0.64789   0.80720   0.73771   1.000
    C3515   C    0.66931   0.80812   0.71445   1.000
    C3516   C    0.80720   0.73771   0.80720   1.000
    C3517   C    0.80812   0.71445   0.80812   1.000
    C3518   C    0.80720   0.64789   0.80720   1.000
    C3519   C    0.80812   0.66931   0.80812   1.000
    C3520   C    0.80720   0.73771   0.64789   1.000
    C3521   C    0.80812   0.71445   0.66931   1.000
    C3522   C    0.80720   0.64789   0.73771   1.000
    C3523   C    0.80812   0.66931   0.71445   1.000
    C3524   C    0.64789   0.80720   0.80720   1.000
    C3525   C    0.66931   0.80812   0.80812   1.000
    C3526   C    0.73771   0.80720   0.80720   1.000
    C3527   C    0.71445   0.80812   0.80812   1.000
    O3528   O    0.45414   0.45414   0.45414   1.000
    O3529   O    0.45414   0.45414   0.63759   1.000
    O3530   O    0.45414   0.63759   0.45414   1.000
    O3531   O    0.63759   0.45414   0.45414   1.000
    O3532   O    0.79586   0.79586   0.61241   1.000
    O3533   O    0.79586   0.79586   0.79586   1.000
    O3534   O    0.79586   0.61241   0.79586   1.000
    O3535   O    0.61241   0.79586   0.79586   1.000
loop_
    _geom_bond_atom_site_label_1
    _geom_bond_atom_site_label_2
    _geom_bond_distance
    _geom_bond_site_symmetry_2
    _ccdc_geom_bond_type
    O1876  Cr1678    1.89821      .   S
    O1876  C1853     1.27469  1_554   S
    O2234  Cr1682    1.89821      .   S
    O2234  C2211     1.27469  1_554   S
    O1526  Cr1686    1.89821      .   S
    O1526  C1503     1.27469  1_554   S
    O1941  Cr1686    1.89821      .   S
    O1941  C1918     1.27469  1_554   S
    O990   Cr1678    1.89821      .   S
    O990   C967      1.27469  1_554   S
    O1266  Cr1682    1.89821      .   S
    O1266  C1243     1.27469  1_554   S
    C1926  C1924     1.41016      .   S
    C1926  C1930     1.40076      .   S
    C1926  C1925     1.47969  1_554   S
    C1861  C1859     1.41016      .   S
    C1861  C1865     1.40111      .   S
    C1861  C1860     1.47969  1_554   S
    C975   C973      1.41016      .   S
    C975   C979      1.40111      .   S
    C975   C974      1.47969  1_554   S
    C1251  C1249     1.41016      .   S
    C1251  C1255     1.40076      .   S
    C1251  C1250     1.47969  1_554   S
    C2219  C2217     1.41016      .   S
    C2219  C2223     1.40113      .   S
    C2219  C2218     1.47969  1_554   S
    C1511  C1509     1.41016      .   S
    C1511  C1515     1.40113      .   S
    C1511  C1510     1.47969  1_554   S
    H2250  C2210     1.08341  1_554   S
    H1542  C1502     1.08341  1_554   S
    H1957  C1917     1.08292  1_554   S
    H1006  C966      1.08299  1_554   S
    H1282  C1242     1.08292  1_554   S
    H1892  C1852     1.08299  1_554   S
    C973   C976      1.40238      .   S
    C973   H1011     1.08281  1_554   S
    C2217  C2220     1.40238      .   S
    C2217  H2255     1.08279  1_554   S
    C1859  C1862     1.40238      .   S
    C1859  H1897     1.08281  1_554   S
    C1249  C1252     1.40238      .   S
    C1249  H1287     1.08317  1_554   S
    C1924  C1927     1.40238      .   S
    C1924  H1962     1.08317  1_554   S
    C1509  C1512     1.40238      .   S
    C1509  H1547     1.08279  1_554   S
    H2248  C2206     1.08252      .   S
    H1540  C1498     1.08252      .   S
    H1004  C962      1.08252      .   S
    H1955  C1913     1.08252      .   S
    H1890  C1848     1.08252      .   S
    H1280  C1238     1.08252      .   S
    Cr3239 O2007     1.88921      .   S
    Cr3239 O1592     1.88967      .   S
    Cr3239 O2009     1.89044  1_554   S
    Cr3239 O1594     1.89044  1_554   S
    Cr3239 O1687     1.92625  1_554   S
    Cr3235 O2170     1.88967      .   S
    Cr3235 O1332     1.88921      .   S
    Cr3235 O1334     1.89044  1_554   S
    Cr3235 O2172     1.89044  1_554   S
    Cr3235 O1683     1.92625  1_554   S
    Cr3231 O1056     1.88931      .   S
    Cr3231 O1812     1.88931      .   S
    Cr3231 O1814     1.89044  1_554   S
    Cr3231 O1058     1.89044  1_554   S
    Cr3231 O1679     1.92625  1_554   S
    Cr1678 O1811     1.89821      .   S
    Cr1678 O1055     1.89821      .   S
    Cr1682 O1331     1.89821      .   S
    Cr1682 O2169     1.89821      .   S
    Cr1686 O1591     1.89821      .   S
    Cr1686 O2006     1.89821      .   S
    H1549  C1515     1.08312      .   S
    H1964  C1930     1.08353      .   S
    H1289  C1255     1.08353      .   S
    H1899  C1865     1.08292      .   S
    H1013  C979      1.08292      .   S
    H2257  C2223     1.08312      .   S
    C1912  C1913     1.41158      .   S
    C1912  C1910     1.41084      .   S
    C1912  C1911     1.51096  1_554   S
    C1497  C1498     1.41113      .   S
    C1497  C1495     1.41127      .   S
    C1497  C1496     1.51099  1_554   S
    C1237  C1238     1.41158      .   S
    C1237  C1235     1.41084      .   S
    C1237  C1236     1.51096  1_554   S
    C2205  C2206     1.41113      .   S
    C2205  C2203     1.41127      .   S
    C2205  C2204     1.51099  1_554   S
    C961   C962      1.41173      .   S
    C961   C959      1.41100      .   S
    C961   C960      1.51070  1_554   S
    C1847  C1848     1.41173      .   S
    C1847  C1845     1.41100      .   S
    C1847  C1846     1.51070  1_554   S
    C2223  C2224     1.39027      .   S
    C1515  C1516     1.39027      .   S
    C979   C980      1.39027      .   S
    C1930  C1931     1.39027      .   S
    C1255  C1256     1.39027      .   S
    C1865  C1866     1.39027      .   S
    C1498  C1978     1.41076      .   S
    C1913  C1563     1.41076      .   S
    C962   C1783     1.41076      .   S
    C2206  C1303     1.41076      .   S
    C1848  C1027     1.41076      .   S
    C1238  C2141     1.41076      .   S
    C1927  H1963     1.08273      .   S
    C1927  C1929     1.40426      .   S
    C1862  H1898     1.08334      .   S
    C1862  C1864     1.40426      .   S
    C2220  H2256     1.08313      .   S
    C2220  C2222     1.40426      .   S
    C1512  H1548     1.08313      .   S
    C1512  C1514     1.40426      .   S
    C1252  H1288     1.08273      .   S
    C1252  C1254     1.40426      .   S
    C976   H1012     1.08334      .   S
    C976   C978      1.40426      .   S
    O1056  C1032     1.27285      .   S
    O2170  C2146     1.27227      .   S
    O1812  C1788     1.27285      .   S
    O2007  C1983     1.27252      .   S
    O1592  C1568     1.27227      .   S
    O1332  C1308     1.27252      .   S
    H1889  C1845     1.08272      .   S
    H1003  C959      1.08272      .   S
    H1279  C1235     1.08286      .   S
    H2247  C2203     1.08332      .   S
    H1539  C1495     1.08332      .   S
    H1954  C1910     1.08286      .   S
    C1495  C1975     1.40950      .   S
    C959   C1780     1.40950      .   S
    C1235  C2138     1.40950      .   S
    C2203  C1300     1.40950      .   S
    C1845  C1024     1.40950      .   S
    C1910  C1560     1.40950      .   S
    O1811  C1788     1.27469      .   S
    O1591  C1568     1.27469  1_545   S
    O1331  C1308     1.27469  1_455   S
    O1055  C1032     1.27469      .   S
    O2169  C2146     1.27469  1_455   S
    O2006  C1983     1.27469  1_545   S
    C1032  C1033     1.50834      .   S
    C1788  C1789     1.50834      .   S
    C1983  C1984     1.50834      .   S
    C1308  C1309     1.50834      .   S
    C2146  C2147     1.50834      .   S
    C1568  C1569     1.50834      .   S
    C980   C978      1.40878      .   S
    C980   H1014     1.08289      .   S
    C1516  C1514     1.40857      .   S
    C1516  H1550     1.08287      .   S
    C1256  C1254     1.40817      .   S
    C1256  H1290     1.08327      .   S
    C1866  C1864     1.40878      .   S
    C1866  H1900     1.08289      .   S
    C1931  C1929     1.40817      .   S
    C1931  H1965     1.08327      .   S
    C2224  C2222     1.40857      .   S
    C2224  H2258     1.08287      .   S
    C1978  H2020     1.08252      .   S
    C1978  C1977     1.41113      .   S
    C1303  H1345     1.08252      .   S
    C1303  C1302     1.41113      .   S
    C1027  H537      1.08252      .   S
    C1027  C1026     1.41140      .   S
    C2141  H2183     1.08252      .   S
    C2141  C2140     1.41158      .   S
    C1783  H1825     1.08252      .   S
    C1783  C1782     1.41140      .   S
    C1563  H1605     1.08252      .   S
    C1563  C1562     1.41158      .   S
    C1514  C2871     1.48126      .   S
    C1864  C575      1.48153      .   S
    C978   C3131     1.48153      .   S
    C2222  C366      1.48126      .   S
    C1929  C164      1.48129      .   S
    C1254  C2611     1.48129      .   S
    H2187  C2149     1.08289      .   S
    H1829  C1791     1.08230      .   S
    H1349  C1311     1.08263      .   S
    H2024  C1986     1.08263      .   S
    H541   C1035     1.08230      .   S
    H1609  C1571     1.08289      .   S
    C1033  C1035     1.41009      .   S
    C1033  C1031     1.41161      .   S
    C1984  C1986     1.41009      .   S
    C1984  C1982     1.41131      .   S
    C1309  C1311     1.41009      .   S
    C1309  C1307     1.41131      .   S
    C1569  C1571     1.41009      .   S
    C1569  C1567     1.41102      .   S
    C2147  C2149     1.41009      .   S
    C2147  C2145     1.41102      .   S
    C1789  C1791     1.41009      .   S
    C1789  C1787     1.41161      .   S
    C1780  C1782     1.41067      .   S
    C1780  H1824     1.08302      .   S
    C1975  C1977     1.41127      .   S
    C1975  H2019     1.08332      .   S
    C1560  C1562     1.41084      .   S
    C1560  H1604     1.08286      .   S
    C2138  C2140     1.41084      .   S
    C2138  H2182     1.08286      .   S
    C1024  C1026     1.41067      .   S
    C1024  H536      1.08302      .   S
    C1300  C1302     1.41127      .   S
    C1300  H1344     1.08332      .   S
    C1311  C1310     1.40647      .   S
    C1035  C1034     1.40647      .   S
    C1986  C1985     1.40647      .   S
    C1791  C1790     1.40647      .   S
    C2149  C2148     1.40647      .   S
    C1571  C1570     1.40647      .   S
    C2140  C2139     1.51096  1_455   S
    C1782  C1781     1.51132      .   S
    C1302  C1301     1.51099  1_455   S
    C1562  C1561     1.51096  1_545   S
    C1026  C1025     1.51132      .   S
    C1977  C1976     1.51099  1_545   S
    H2185  C2145     1.08292  1_455   S
    H539   C1031     1.08218      .   S
    H1347  C1307     1.08341  1_455   S
    H1607  C1567     1.08292  1_545   S
    H1827  C1787     1.08218      .   S
    H2022  C1982     1.08341  1_545   S
    C1031  C1028     1.41201      .   S
    C1982  C1979     1.41201      .   S
    C1567  C1564     1.41201      .   S
    C1307  C1304     1.41201      .   S
    C1787  C1784     1.41201      .   S
    C2145  C2142     1.41201      .   S
    C164   O183      1.27271      .   S
    C164   O1598     1.26278      .   S
    C3131  O3150     1.27213      .   S
    C3131  O1818     1.26278      .   S
    C2611  O2630     1.27271      .   S
    C2611  O2176     1.26278      .   S
    C366   O385      1.27227      .   S
    C366   O1338     1.26278      .   S
    C575   O594      1.27213      .   S
    C575   O1062     1.26278      .   S
    C2871  O2890     1.27227      .   S
    C2871  O2013     1.26278      .   S
    C1310  H1348     1.08286      .   S
    C1310  C1306     1.41033      .   S
    C1985  H2023     1.08286      .   S
    C1985  C1981     1.41033      .   S
    C1790  H1828     1.08224      .   S
    C1790  C1786     1.41033      .   S
    C2148  H2186     1.08261      .   S
    C2148  C2144     1.41033      .   S
    C1034  H540      1.08224      .   S
    C1034  C1030     1.41033      .   S
    C1570  H1608     1.08261      .   S
    C1570  C1566     1.41033      .   S
    O2890  Cr2844    1.89273      .   S
    O3150  Cr3104    1.89273      .   S
    O2630  Cr2584    1.89273      .   S
    O594   Cr548     1.89273      .   S
    O385   Cr339     1.89273      .   S
    O183   Cr137     1.89273      .   S
    C1028  C1030     1.41150      .   S
    C1028  H538      1.08234      .   S
    C1304  C1306     1.41088      .   S
    C1304  H1346     1.08234      .   S
    C1784  C1786     1.41150      .   S
    C1784  H1826     1.08234      .   S
    C2142  C2144     1.41116      .   S
    C2142  H2184     1.08234      .   S
    C1979  C1981     1.41088      .   S
    C1979  H2021     1.08234      .   S
    C1564  C1566     1.41116      .   S
    C1564  H1606     1.08234      .   S
    C1976  O2881     1.27552      .   S
    C1976  O2002     1.27399      .   S
    C1025  O585      1.27492      .   S
    C1025  O1051     1.27399      .   S
    C1561  O174      1.27509      .   S
    C1561  O1587     1.27399      .   S
    C1301  O376      1.27552      .   S
    C1301  O1327     1.27399      .   S
    C1781  O3141     1.27492      .   S
    C1781  O1807     1.27399      .   S
    C2139  O2621     1.27509      .   S
    C2139  O2165     1.27399      .   S
    C1030  C1029     1.50873      .   S
    C1306  C1305     1.50873      .   S
    C1981  C1980     1.50873      .   S
    C1786  C1785     1.50873      .   S
    C1566  C1565     1.50873      .   S
    C2144  C2143     1.50873      .   S
    O1062  Cr3209    1.84888      .   S
    O1818  Cr1644    1.84888      .   S
    O2013  Cr1650    1.84913      .   S
    O2176  Cr1656    1.84892      .   S
    O1598  Cr3197    1.84892      .   S
    O1338  Cr3203    1.84913      .   S
    O2621  Cr2584    1.89948      .   S
    O585   Cr548     1.89988      .   S
    O174   Cr137     1.89948      .   S
    O3141  Cr3104    1.89988      .   S
    O2881  Cr2844    1.89940      .   S
    O376   Cr339     1.89940      .   S
    C1980  O2005     1.27302      .   S
    C1980  O2004     1.27495      .   S
    C1565  O1590     1.27276      .   S
    C1565  O1589     1.27495      .   S
    C1785  O1810     1.27239      .   S
    C1785  O1809     1.27495      .   S
    C1305  O1330     1.27302      .   S
    C1305  O1329     1.27495      .   S
    C1029  O1054     1.27239      .   S
    C1029  O1053     1.27495      .   S
    C2143  O2168     1.27276      .   S
    C2143  O2167     1.27495      .   S
    O2002  Cr1966    1.89409      .   S
    O1327  Cr1291    1.89409      .   S
    O1051  Cr1015    1.89409      .   S
    O1807  Cr1771    1.89409      .   S
    O2165  Cr2129    1.89409      .   S
    O1587  Cr1551    1.89409      .   S
    O2005  Cr1650    1.88823      .   S
    O1810  Cr1644    1.88869      .   S
    O1330  Cr3203    1.88823      .   S
    O1590  Cr3197    1.88873      .   S
    O2168  Cr1656    1.88873      .   S
    O1054  Cr3209    1.88869      .   S
    Cr339  O377      1.90167      .   S
    Cr339  O375      1.89409      .   S
    Cr2844 O2882     1.90167      .   S
    Cr2844 O2880     1.89409      .   S
    Cr548  O586      1.90167      .   S
    Cr548  O584      1.89409      .   S
    Cr137  O175      1.90167      .   S
    Cr137  O173      1.89409      .   S
    Cr2584 O2622     1.90167      .   S
    Cr2584 O2620     1.89409      .   S
    Cr3104 O1645     1.93298      .   S
    Cr3104 O3142     1.90167      .   S
    Cr3104 O3140     1.89409      .   S
    O1053  Cr1015    1.90167      .   S
    O2167  Cr2129    1.90167      .   S
    O1589  Cr1551    1.90167      .   S
    O2004  Cr1966    1.90167      .   S
    O1329  Cr1291    1.90167      .   S
    O1809  Cr1771    1.90167      .   S
    Cr1650 O1651     1.92102      .   S
    Cr1650 O2883     1.88823      .   S
    Cr1650 O2891     1.84913      .   S
    Cr3197 O3198     1.92102      .   S
    Cr3197 O176      1.88869      .   S
    Cr3197 O184      1.84888      .   S
    O3198  Cr1551    1.93298      .   S
    Cr3203 O3204     1.92102      .   S
    Cr3203 O378      1.88823      .   S
    Cr3203 O386      1.84913      .   S
    O1651  Cr1966    1.93298      .   S
    O1645  Cr1644    1.92102      .   S
    Cr1644 O3143     1.88873      .   S
    Cr1644 O3151     1.84892      .   S
    Cr1656 O1657     1.92102      .   S
    Cr1656 O2623     1.88869      .   S
    Cr1656 O2631     1.84888      .   S
    O1657  Cr2129    1.93298      .   S
    O3210  Cr3209    1.92102      .   S
    O3210  Cr1015    1.93298      .   S
    Cr3209 O587      1.88873      .   S
    Cr3209 O595      1.84892      .   S
    O3204  Cr1291    1.93298      .   S
    O175   C151      1.27495      .   S
    O3142  C3118     1.27495      .   S
    O2882  C2858     1.27495      .   S
    O377   C353      1.27495      .   S
    O586   C562      1.27495      .   S
    O2622  C2598     1.27495      .   S
    Cr2129 O2166     1.89988      .   S
    Cr2129 O2175     1.89273      .   S
    Cr1291 O1328     1.89940      .   S
    Cr1291 O1337     1.89273      .   S
    Cr1966 O2003     1.89940      .   S
    Cr1966 O2012     1.89273      .   S
    Cr1551 O1588     1.89988      .   S
    Cr1551 O1597     1.89273      .   S
    Cr1771 O1808     1.89948      .   S
    Cr1771 O1817     1.89273      .   S
    Cr1015 O1052     1.89948      .   S
    Cr1015 O1061     1.89273      .   S
    O176   C151      1.27239      .   S
    O3143  C3118     1.27276      .   S
    O378   C353      1.27302      .   S
    O587   C562      1.27276      .   S
    O2623  C2598     1.27239      .   S
    O2883  C2858     1.27302      .   S
    O2880  C2854     1.27399      .   S
    O173   C147      1.27399      .   S
    O584   C558      1.27399      .   S
    O2620  C2594     1.27399      .   S
    O375   C349      1.27399      .   S
    O3140  C3114     1.27399      .   S
    C353   C354      1.50873      .   S
    C562   C563      1.50873      .   S
    C151   C152      1.50873      .   S
    C2598  C2599     1.50873      .   S
    C2858  C2859     1.50873      .   S
    C3118  C3119     1.50873      .   S
    H603   C561      1.08234      .   S
    H2639  C2597     1.08234      .   S
    H394   C352      1.08234      .   S
    H192   C150      1.08234      .   S
    H3159  C3117     1.08234      .   S
    H2899  C2857     1.08234      .   S
    O2003  C2854     1.27552      .   S
    O1808  C3114     1.27509      .   S
    O2166  C2594     1.27492      .   S
    O1328  C349      1.27552      .   S
    O1588  C147      1.27492      .   S
    O1052  C558      1.27509      .   S
    O2631  C2156     1.26278      .   S
    O595   C1042     1.26278      .   S
    O2891  C1993     1.26278      .   S
    O386   C1318     1.26278      .   S
    O184   C1578     1.26278      .   S
    O3151  C1798     1.26278      .   S
    C563   C561      1.41116      .   S
    C563   C567      1.41033      .   S
    C2859  C2857     1.41088      .   S
    C2859  C2863     1.41033      .   S
    C2599  C2597     1.41150      .   S
    C2599  C2603     1.41033      .   S
    C354   C352      1.41088      .   S
    C354   C358      1.41033      .   S
    C3119  C3117     1.41116      .   S
    C3119  C3123     1.41033      .   S
    C152   C150      1.41150      .   S
    C152   C156      1.41033      .   S
    C349   C350      1.51099      .   S
    C3114  C3115     1.51096      .   S
    C558   C559      1.51096      .   S
    C2854  C2855     1.51099      .   S
    C2594  C2595     1.51132      .   S
    C147   C148      1.51132      .   S
    C561   C564      1.41201      .   S
    C2597  C2600     1.41201      .   S
    C352   C355      1.41201      .   S
    C150   C153      1.41201      .   S
    C3117  C3120     1.41201      .   S
    C2857  C2860     1.41201      .   S
    H194   C156      1.08224      .   S
    H605   C567      1.08261      .   S
    H2901  C2863     1.08286      .   S
    H2641  C2603     1.08224      .   S
    H396   C358      1.08286      .   S
    H3161  C3123     1.08261      .   S
    O2175  C2156     1.27213      .   S
    O1337  C1318     1.27227      .   S
    O1597  C1578     1.27213      .   S
    O1817  C1798     1.27271      .   S
    O1061  C1042     1.27271      .   S
    O2012  C1993     1.27227      .   S
    C3123  C3124     1.40647      .   S
    C156   C157      1.40647      .   S
    C567   C568      1.40647      .   S
    C2603  C2604     1.40647      .   S
    C2863  C2864     1.40647      .   S
    C358   C359      1.40647      .   S
    H190   C146      1.08302      .   S
    H2637  C2593     1.08302      .   S
    H601   C557      1.08286      .   S
    H392   C348      1.08332      .   S
    H2897  C2853     1.08332      .   S
    H3157  C3113     1.08286      .   S
    C1993  C641      1.48126      .   S
    C1318  C3067     1.48126      .   S
    C1578  C2547     1.48153      .   S
    C2156  C233      1.48153      .   S
    C1798  C302      1.48129      .   S
    C1042  C2807     1.48129      .   S
    C564   H604      1.08292      .   S
    C564   C566      1.41102      .   S
    C3120  H3160     1.08292      .   S
    C3120  C3122     1.41102      .   S
    C153   H193      1.08218      .   S
    C153   C155      1.41161      .   S
    C2860  H2900     1.08341      .   S
    C2860  C2862     1.41131      .   S
    C2600  H2640     1.08218      .   S
    C2600  C2602     1.41161      .   S
    C355   H395      1.08341      .   S
    C355   C357      1.41131      .   S
    C2595  C2593     1.41067      .   S
    C2595  C2596     1.41140      .   S
    C148   C146      1.41067      .   S
    C148   C149      1.41140      .   S
    C2855  C2853     1.41127      .   S
    C2855  C2856     1.41113      .   S
    C559   C557      1.41084      .   S
    C559   C560      1.41158      .   S
    C350   C348      1.41127      .   S
    C350   C351      1.41113      .   S
    C3115  C3113     1.41084      .   S
    C3115  C3116     1.41158      .   S
    C2864  C2862     1.41009      .   S
    C2864  H2902     1.08263      .   S
    C3124  C3122     1.41009      .   S
    C3124  H3162     1.08289      .   S
    C2604  C2602     1.41009      .   S
    C2604  H2642     1.08230      .   S
    C359   C357      1.41009      .   S
    C359   H397      1.08263      .   S
    C568   C566      1.41009      .   S
    C568   H606      1.08289      .   S
    C157   C155      1.41009      .   S
    C157   H195      1.08230      .   S
    C557   C2788     1.40950      .   S
    C2853  C622      1.40950      .   S
    C146   C2528     1.40950      .   S
    C2593  C214      1.40950      .   S
    C348   C3048     1.40950      .   S
    C3113  C283      1.40950      .   S
    C3122  C3121     1.50834      .   S
    C2602  C2601     1.50834      .   S
    C2862  C2861     1.50834      .   S
    C357   C356      1.50834      .   S
    C566   C565      1.50834      .   S
    C155   C154      1.50834      .   S
    H2583  C2549     1.08289      .   S
    H134   C235      1.08289      .   S
    H677   C643      1.08287      .   S
    H338   C304      1.08327      .   S
    H2843  C2809     1.08327      .   S
    H3103  C3069     1.08287      .   S
    C2807  C2809     1.40817      .   S
    C2807  C2805     1.40426      .   S
    C3067  C3069     1.40857      .   S
    C3067  C3065     1.40426      .   S
    C302   C304      1.40817      .   S
    C302   C300      1.40426      .   S
    C233   C235      1.40878      .   S
    C233   C231      1.40426      .   S
    C641   C643      1.40857      .   S
    C641   C639      1.40426      .   S
    C2547  C2549     1.40878      .   S
    C2547  C2545     1.40426      .   S
    H393   C351      1.08252      .   S
    H191   C149      1.08252      .   S
    H2638  C2596     1.08252      .   S
    H602   C560      1.08252      .   S
    H2898  C2856     1.08252      .   S
    H3158  C3116     1.08252      .   S
    C149   C2531     1.41076      .   S
    C351   C3051     1.41076      .   S
    C3116  C286      1.41076      .   S
    C2596  C217      1.41076      .   S
    C560   C2791     1.41076      .   S
    C2856  C625      1.41076      .   S
    C3069  C3068     1.39027      .   S
    C643   C642      1.39027      .   S
    C2809  C2808     1.39027      .   S
    C2549  C2548     1.39027      .   S
    C235   C234      1.39027      .   S
    C304   C303      1.39027      .   S
    C356   O379      1.27469      .   S
    C356   O380      1.27252      .   S
    C154   O177      1.27469      .   S
    C154   O178      1.27285      .   S
    C3121  O3144     1.27469      .   S
    C3121  O3145     1.27227      .   S
    C565   O588      1.27469      .   S
    C565   O589      1.27227      .   S
    C2861  O2884     1.27469      .   S
    C2861  O2885     1.27252      .   S
    C2601  O2624     1.27469      .   S
    C2601  O2625     1.27285      .   S
    O2884  Cr1672    1.89821      .   S
    O588   Cr1672    1.89821      .   S
    O3144  Cr1668    1.89821      .   S
    O2624  Cr1666    1.89821      .   S
    O379   Cr1668    1.89821      .   S
    O177   Cr1666    1.89821      .   S
    C2528  H2572     1.08272      .   S
    C2528  C2530     1.41100      .   S
    C214   H258      1.08272      .   S
    C214   C216      1.41100      .   S
    C283   H327      1.08286      .   S
    C283   C285      1.41084      .   S
    C3048  H3092     1.08332      .   S
    C3048  C3050     1.41127      .   S
    C622   H666      1.08332      .   S
    C622   C624      1.41127      .   S
    C2788  H2832     1.08286      .   S
    C2788  C2790     1.41084      .   S
    O2885  Cr3224    1.88921      .   S
    O589   Cr3224    1.88967      .   S
    O178   Cr3218    1.88931      .   S
    O2625  Cr3218    1.88931      .   S
    O3145  Cr3221    1.88967      .   S
    O380   Cr3221    1.88921      .   S
    H2841  C2805     1.08273      .   S
    H336   C300      1.08273      .   S
    H132   C231      1.08334      .   S
    H2581  C2545     1.08334      .   S
    H675   C639      1.08313      .   S
    H3101  C3065     1.08313      .   S
    C639   C636      1.40238      .   S
    C231   C228      1.40238      .   S
    C2545  C2542     1.40238      .   S
    C3065  C3062     1.40238      .   S
    C2805  C2802     1.40238      .   S
    C300   C297      1.40238      .   S
    C3051  C3050     1.41113      .   S
    C3051  H3093     1.08252      .   S
    C625   C624      1.41113      .   S
    C625   H667      1.08252      .   S
    C2531  C2530     1.41173      .   S
    C2531  H2573     1.08252      .   S
    C286   C285      1.41158      .   S
    C286   H328      1.08252      .   S
    C217   C216      1.41173      .   S
    C217   H259      1.08252      .   S
    C2791  C2790     1.41158      .   S
    C2791  H2833     1.08252      .   S
    C303   H337      1.08353      .   S
    C303   C299      1.40076      .   S
    C2808  H2842     1.08353      .   S
    C2808  C2804     1.40076      .   S
    C3068  H3102     1.08312      .   S
    C3068  C3064     1.40113      .   S
    C642   H676      1.08312      .   S
    C642   C638      1.40113      .   S
    C2548  H2582     1.08292      .   S
    C2548  C2544     1.40111      .   S
    C234   H133      1.08292      .   S
    C234   C230      1.40111      .   S
    C216   C215      1.51070      .   S
    C2530  C2529     1.51070      .   S
    C3050  C3049     1.51099      .   S
    C2790  C2789     1.51096      .   S
    C285   C284      1.51096      .   S
    C624   C623      1.51099      .   S
    Cr1672 O653      1.89821      .   S
    Cr1672 O2819     1.89821      .   S
    Cr1666 O245      1.89821      .   S
    Cr1666 O2559     1.89821      .   S
    Cr1668 O3079     1.89821      .   S
    Cr1668 O314      1.89821      .   S
    Cr3224 O1673     1.92625      .   S
    Cr3224 O2887     1.89044      .   S
    Cr3224 O591      1.89044      .   S
    Cr3218 O1667     1.92625      .   S
    Cr3218 O180      1.89044      .   S
    Cr3218 O2627     1.89044      .   S
    Cr3221 O1669     1.92625      .   S
    Cr3221 O3147     1.89044      .   S
    Cr3221 O382      1.89044      .   S
    C3062  C3064     1.41016      .   S
    C3062  H3100     1.08279      .   S
    C228   C230      1.41016      .   S
    C228   H131      1.08281      .   S
    C297   C299      1.41016      .   S
    C297   H335      1.08317      .   S
    C2542  C2544     1.41016      .   S
    C2542  H2580     1.08281      .   S
    C636   C638      1.41016      .   S
    C636   H674      1.08279      .   S
    C2802  C2804     1.41016      .   S
    C2802  H2840     1.08317      .   S
    H2835  C2795     1.08292      .   S
    H669   C629      1.08341      .   S
    H261   C221      1.08299      .   S
    H2575  C2535     1.08299      .   S
    H3095  C3055     1.08341      .   S
    H330   C290      1.08292      .   S
    C2544  C2543     1.47969      .   S
    C3064  C3063     1.47969      .   S
    C230   C229      1.47969      .   S
    C299   C298      1.47969      .   S
    C638   C637      1.47969      .   S
    C2804  C2803     1.47969      .   S
    O245   C222      1.27469      .   S
    O2559  C2536     1.27469      .   S
    O3079  C3056     1.27469      .   S
    O314   C291      1.27469      .   S
    O653   C630      1.27469      .   S
    O2819  C2796     1.27469      .   S
    O1669  Cr3220    1.92625      .   S
    O1667  Cr3219    1.92625      .   S
    O1673  Cr3225    1.92625      .   S
    C2789  O2815     1.27399      .   S
    C2789  O2068     1.27509      .   S
    C284   O310      1.27399      .   S
    C284   O1133     1.27509      .   S
    C3049  O3075     1.27399      .   S
    C3049  O1743     1.27552      .   S
    C215   O241      1.27399      .   S
    C215   O1393     1.27522      .   S
    C2529  O2555     1.27399      .   S
    C2529  O2361     1.27522      .   S
    C623   O649      1.27399      .   S
    C623   O857      1.27552      .   S
    H2834  C2792     1.08234      .   S
    H329   C287      1.08234      .   S
    H2574  C2532     1.08234      .   S
    H3094  C3052     1.08234      .   S
    H260   C218      1.08234      .   S
    H668   C626      1.08234      .   S
    O310   Cr274     1.89409      .   S
    O649   Cr613     1.89409      .   S
    O2815  Cr2779    1.89409      .   S
    O2555  Cr2519    1.89409      .   S
    O241   Cr202     1.89409      .   S
    O3075  Cr3039    1.89409      .   S
    H3164  C3126     1.08308      .   S
    H399   C361      1.08308      .   S
    H2904  C2866     1.08308      .   S
    H197   C159      1.08308      .   S
    H608   C570      1.08308      .   S
    H2644  C2606     1.08308      .   S
    O2887  C3337     1.27301      .   S
    O180   C3267     1.27301      .   S
    O2627  C3277     1.27301      .   S
    O3147  C3287     1.27301      .   S
    O382   C3297     1.27301      .   S
    O591   C3327     1.27301      .   S
    C2795  C2792     1.41201      .   S
    C2795  C2797     1.41102      .   S
    C2535  C2532     1.41201      .   S
    C2535  C2537     1.41150      .   S
    C3055  C3052     1.41201      .   S
    C3055  C3057     1.41131      .   S
    C629   C626      1.41201      .   S
    C629   C631      1.41131      .   S
    C221   C218      1.41201      .   S
    C221   C223      1.41150      .   S
    C290   C287      1.41201      .   S
    C290   C292      1.41102      .   S
    C2792  C2794     1.41116      .   S
    C3052  C3054     1.41088      .   S
    C2532  C2534     1.41110      .   S
    C287   C289      1.41116      .   S
    C218   C220      1.41110      .   S
    C626   C628      1.41088      .   S
    O1393  Cr1356    1.89929      .   S
    O1133  Cr1096    1.89948      .   S
    O2068  Cr2031    1.89948      .   S
    O857   Cr808     1.89940      .   S
    O1743  Cr1706    1.89940      .   S
    O2361  Cr2324    1.89929      .   S
    H1760  C1718     1.08252      .   S
    H2378  C2336     1.08252      .   S
    H1150  C1108     1.08252      .   S
    H2085  C2043     1.08252      .   S
    H1410  C1368     1.08252      .   S
    H874   C820      1.08252      .   S
    C2536  C2537     1.50834      .   S
    C2536  O2560     1.27273      .   S
    C3056  C3057     1.50834      .   S
    C3056  O3080     1.27252      .   S
    C2796  C2797     1.50834      .   S
    C2796  O2820     1.27227      .   S
    C291   C292      1.50834      .   S
    C291   O315      1.27227      .   S
    C630   C631      1.50834      .   S
    C630   O654      1.27252      .   S
    C222   C223      1.50834      .   S
    C222   O246      1.27273      .   S
    H2643  C2605     1.08260      .   S
    H398   C360      1.08260      .   S
    H2903  C2865     1.08260      .   S
    H607   C569      1.08260      .   S
    H196   C158      1.08260      .   S
    H3163  C3125     1.08260      .   S
    C3063  O384      1.27044      .   S
    C3063  O3083     1.26682      .   S
    C298   O3149     1.26993      .   S
    C298   O318      1.26639      .   S
    C637   O2889     1.27044      .   S
    C637   O657      1.26682      .   S
    C229   O2629     1.27049      .   S
    C229   O249      1.26672      .   S
    C2543  O182      1.27049      .   S
    C2543  O2563     1.26672      .   S
    C2803  O593      1.26993      .   S
    C2803  O2823     1.26639      .   S
    C3126  C3125     1.40693      .   S
    C3126  C3288     1.41318      .   S
    C361   C360      1.40693      .   S
    C361   C3298     1.41318      .   S
    C2866  C2865     1.40693      .   S
    C2866  C3338     1.41318      .   S
    C570   C569      1.40693      .   S
    C570   C3328     1.41318      .   S
    C159   C158      1.40693      .   S
    C159   C3268     1.41318      .   S
    C2606  C2605     1.40693      .   S
    C2606  C3278     1.41318      .   S
    C1718  C820      1.41076      .   S
    C1718  C1717     1.41113      .   S
    C820   C819      1.41113      .   S
    C1108  C2336     1.41076      .   S
    C1108  C1107     1.41140      .   S
    C2043  C1368     1.41076      .   S
    C2043  C2042     1.41140      .   S
    C1368  C1367     1.41173      .   S
    C2336  C2335     1.41173      .   S
    O2629  Cr2585    1.87232      .   S
    O2889  Cr2845    1.87258      .   S
    O593   Cr549     1.87307      .   S
    O3149  Cr3105    1.87307      .   S
    O384   Cr340     1.87258      .   S
    O182   Cr138     1.87232      .   S
    C2797  C2799     1.41009      .   S
    C292   C294      1.41009      .   S
    C3057  C3059     1.41009      .   S
    C223   C225      1.41009      .   S
    C631   C633      1.41009      .   S
    C2537  C2539     1.41009      .   S
    C3287  C3288     1.42548      .   S
    C3287  O317      1.27301      .   S
    C3327  C3328     1.42548      .   S
    C3327  O2822     1.27301      .   S
    C3297  C3298     1.42548      .   S
    C3297  O3082     1.27301      .   S
    C3337  C3338     1.42548      .   S
    C3337  O656      1.27301      .   S
    C3267  C3268     1.42548      .   S
    C3267  O2562     1.27301      .   S
    C3277  C3278     1.42548      .   S
    C3277  O248      1.27301      .   S
    O2556  Cr2519    1.89929      .   S
    O2556  C2334     1.27522      .   S
    O311   Cr274     1.89988      .   S
    O311   C1106     1.27492      .   S
    O650   Cr613     1.89940      .   S
    O650   C818      1.27552      .   S
    O242   Cr202     1.89929      .   S
    O242   C1366     1.27522      .   S
    O2816  Cr2779    1.89988      .   S
    O2816  C2041     1.27492      .   S
    O3076  Cr3039    1.89940      .   S
    O3076  C1716     1.27552      .   S
    Cr2519 O2557     1.90167      .   S
    Cr2519 O2565     1.89273      .   S
    Cr613  O651      1.90167      .   S
    Cr613  O659      1.89273      .   S
    Cr3039 O3077     1.90167      .   S
    Cr3039 O3085     1.89273      .   S
    Cr202  O243      1.90167      .   S
    Cr202  O251      1.89273      .   S
    Cr202  O3200     1.93298      .   S
    Cr2779 O2817     1.90167      .   S
    Cr2779 O2825     1.89273      .   S
    Cr2779 O1653     1.93298      .   S
    Cr274  O312      1.90167      .   S
    Cr274  O320      1.89273      .   S
    Cr274  O3202     1.93298      .   S
    O312   C288      1.27495      .   S
    O243   C219      1.27495      .   S
    O651   C627      1.27495      .   S
    O2557  C2533     1.27495      .   S
    O3077  C3053     1.27495      .   S
    O2817  C2793     1.27495      .   S
    C3125  C3286     1.40896      .   S
    C2605  C3276     1.40868      .   S
    C158   C3266     1.40868      .   S
    C569   C3326     1.40896      .   S
    C2865  C3336     1.40869      .   S
    C360   C3296     1.40869      .   S
    C2335  C2334     1.51070  1_545   S
    C2335  C2333     1.41100      .   S
    C2042  C2041     1.51132      .   S
    C2042  C2040     1.41067      .   S
    C1717  C1716     1.51099  1_455   S
    C1717  C1715     1.41127      .   S
    C819   C818      1.51099  1_545   S
    C819   C817      1.41127      .   S
    C1107  C1106     1.51132      .   S
    C1107  C1105     1.41067      .   S
    C1367  C1366     1.51070  1_455   S
    C1367  C1365     1.41100      .   S
    C2334  O2360     1.27399      .   S
    C1716  O1742     1.27399      .   S
    C818   O856      1.27399      .   S
    C1106  O1132     1.27399      .   S
    C2041  O2067     1.27399      .   S
    C1366  O1392     1.27399      .   S
    O246   Cr3219    1.88907      .   S
    O654   Cr3225    1.88921      .   S
    O2560  Cr3219    1.88907      .   S
    O2820  Cr3225    1.88967      .   S
    O315   Cr3220    1.88967      .   S
    O3080  Cr3220    1.88921      .   S
    Cr3225 O656      1.89044      .   S
    Cr3225 O2822     1.89044      .   S
    Cr3220 O3082     1.89044      .   S
    Cr3220 O317      1.89044      .   S
    Cr3219 O248      1.89044      .   S
    Cr3219 O2562     1.89044      .   S
    C3288  C296      1.41318      .   S
    C3328  C2801     1.41318      .   S
    C3278  C227      1.41318      .   S
    C3268  C2541     1.41318      .   S
    C3298  C3061     1.41318      .   S
    C3338  C635      1.41318      .   S
    O318   Cr3280    1.86988      .   S
    O3083  Cr3290    1.86975      .   S
    O249   Cr3270    1.87002      .   S
    O2823  Cr3320    1.86988      .   S
    O657   Cr3330    1.86975      .   S
    O2563  Cr3260    1.87002      .   S
    C2794  C2793     1.50873      .   S
    C2794  C2798     1.41033      .   S
    C220   C219      1.50873      .   S
    C220   C224      1.41033      .   S
    C628   C627      1.50873      .   S
    C628   C632      1.41033      .   S
    C3054  C3053     1.50873      .   S
    C3054  C3058     1.41033      .   S
    C2534  C2533     1.50873      .   S
    C2534  C2538     1.41033      .   S
    C289   C288      1.50873      .   S
    C289   C293      1.41033      .   S
    C2040  C1365     1.40950      .   S
    C2040  H2084     1.08302      .   S
    C2333  C1105     1.40950      .   S
    C2333  H2377     1.08272      .   S
    C1365  H1409     1.08272      .   S
    C1105  H1149     1.08302      .   S
    C817   C1715     1.40950      .   S
    C817   H873      1.08332      .   S
    C1715  H1759     1.08332      .   S
    O856   Cr808     1.89409      .   S
    O1742  Cr1706    1.89409      .   S
    O2360  Cr2324    1.89409      .   S
    O2067  Cr2031    1.89409      .   S
    O1132  Cr1096    1.89409      .   S
    O1392  Cr1356    1.89409      .   S
    C219   O244      1.27276      .   S
    C2533  O2558     1.27276      .   S
    C627   O652      1.27302      .   S
    C2793  O2818     1.27276      .   S
    C288   O313      1.27276      .   S
    C3053  O3078     1.27302      .   S
    H2636  C2592     1.08261      .   S
    H391   C347      1.08261      .   S
    H600   C556      1.08261      .   S
    H2896  C2852     1.08261      .   S
    H3156  C3112     1.08261      .   S
    H189   C145      1.08261      .   S
    C2799  C2798     1.40647      .   S
    C2799  H2837     1.08289      .   S
    C3059  C3058     1.40647      .   S
    C3059  H3097     1.08263      .   S
    C633   C632      1.40647      .   S
    C633   H671      1.08263      .   S
    C2539  C2538     1.40647      .   S
    C2539  H2577     1.08243      .   S
    C294   C293      1.40647      .   S
    C294   H332      1.08289      .   S
    C225   C224      1.40647      .   S
    C225   H263      1.08243      .   S
    O2626  Cr2585    1.88990      .   S
    O2626  C3275     1.27123      .   S
    O381   Cr340     1.88990      .   S
    O381   C3295     1.27227      .   S
    O2886  Cr2845    1.88990      .   S
    O2886  C3335     1.27227      .   S
    O3146  Cr3105    1.88990      .   S
    O3146  C3285     1.27177      .   S
    O179   Cr138     1.88990      .   S
    O179   C3265     1.27123      .   S
    O590   Cr549     1.88990      .   S
    O590   C3325     1.27177      .   S
    C145   C2852     1.40510      .   S
    C145   C144      1.40882      .   S
    C556   C3112     1.40510      .   S
    C556   C555      1.40821      .   S
    C2592  C347      1.40510      .   S
    C2592  C2591     1.40882      .   S
    C3112  C3111     1.40821      .   S
    C2852  C2851     1.40850      .   S
    C347   C346      1.40850      .   S
    H199   C163      1.08314      .   S
    H2646  C2610     1.08314      .   S
    H3166  C3130     1.08273      .   S
    H2906  C2870     1.08313      .   S
    H610   C574      1.08273      .   S
    H401   C365      1.08313      .   S
    Cr1356 O1402     1.89273      .   S
    Cr1356 O1394     1.90167      .   S
    Cr1706 O1643     1.93298      .   S
    Cr1706 O1752     1.89273      .   S
    Cr1706 O1744     1.90167      .   S
    Cr1096 O1142     1.89273      .   S
    Cr1096 O1134     1.90167      .   S
    Cr2324 O1663     1.93298      .   S
    Cr2324 O2370     1.89273      .   S
    Cr2324 O2362     1.90167      .   S
    Cr2031 O2077     1.89273      .   S
    Cr2031 O2069     1.90167      .   S
    Cr808  O3212     1.93298      .   S
    Cr808  O866      1.89273      .   S
    Cr808  O858      1.90167      .   S
    O2618  Cr2585    1.88729      .   S
    O2618  C2590     1.27072      .   S
    O373   Cr340     1.88668      .   S
    O373   C345      1.27040      .   S
    O2878  Cr2845    1.88668      .   S
    O2878  C2850     1.27040      .   S
    O171   Cr138     1.88729      .   S
    O171   C143      1.27072      .   S
    O3138  Cr3105    1.88714      .   S
    O3138  C3110     1.27101      .   S
    O582   Cr549     1.88714      .   S
    O582   C554      1.27101      .   S
    Cr3105 O3289     1.92593      .   S
    Cr3105 O3136     1.87145      .   S
    Cr549  O3329     1.92593      .   S
    Cr549  O580      1.87145      .   S
    Cr138  O3269     1.92498      .   S
    Cr138  O169      1.87187      .   S
    Cr2845 O3339     1.92532      .   S
    Cr2845 O2876     1.87172      .   S
    Cr340  O3299     1.92532      .   S
    Cr340  O371      1.87172      .   S
    Cr2585 O3279     1.92498      .   S
    Cr2585 O2616     1.87187      .   S
    C3296  C3295     1.50353      .   S
    C3296  C3060     1.40869      .   S
    C3326  C3325     1.50353      .   S
    C3326  C2800     1.40896      .   S
    C3286  C3285     1.50353      .   S
    C3286  C295      1.40896      .   S
    C3276  C3275     1.50353      .   S
    C3276  C226      1.40922      .   S
    C3266  C3265     1.50353      .   S
    C3266  C2540     1.40922      .   S
    C3336  C3335     1.50353      .   S
    C3336  C634      1.40869      .   S
    O2825  C2806     1.27213      .   S
    O251   C232      1.27224      .   S
    O2565  C2546     1.27224      .   S
    O659   C640      1.27227      .   S
    O320   C301      1.27213      .   S
    O3085  C3066     1.27227      .   S
    O3202  Cr3201    1.92102      .   S
    O3212  Cr3211    1.92102      .   S
    O1653  Cr1652    1.92102      .   S
    O1663  Cr1662    1.92102      .   S
    O1643  Cr1642    1.92102      .   S
    O3200  Cr3199    1.92102      .   S
    C224   H262      1.08264      .   S
    C632   H670      1.08286      .   S
    C293   H331      1.08261      .   S
    C2538  H2576     1.08264      .   S
    C3058  H3096     1.08286      .   S
    C2798  H2836     1.08261      .   S
    H3165  C3127     1.08317      .   S
    H400   C362      1.08279      .   S
    H2645  C2607     1.08330      .   S
    H2905  C2867     1.08279      .   S
    H609   C571      1.08317      .   S
    H198   C160      1.08330      .   S
    C346   C345      1.49256      .   S
    C346   C344      1.40665      .   S
    C2591  C2590     1.49130      .   S
    C2591  C2589     1.40697      .   S
    C555   C554      1.49193      .   S
    C555   C553      1.40726      .   S
    C3111  C3110     1.49193      .   S
    C3111  C3109     1.40726      .   S
    C144   C143      1.49130      .   S
    C144   C142      1.40697      .   S
    C2851  C2850     1.49256      .   S
    C2851  C2849     1.40665      .   S
    C2590  O240      1.26837      .   S
    C345   O3074     1.26808      .   S
    C2850  O648      1.26808      .   S
    C143   O2554     1.26837      .   S
    C554   O2814     1.26777      .   S
    C3110  O309      1.26777      .   S
    C296   C295      1.40693      .   S
    C296   H334      1.08308      .   S
    C635   C634      1.40693      .   S
    C635   H673      1.08308      .   S
    C2541  C2540     1.40693      .   S
    C2541  H2579     1.08308      .   S
    C227   C226      1.40693      .   S
    C227   H265      1.08308      .   S
    C2801  C2800     1.40693      .   S
    C2801  H2839     1.08308      .   S
    C3061  C3060     1.40693      .   S
    C3061  H3099     1.08308      .   S
    O1402  C1383     1.27224      .   S
    O2370  C2351     1.27224      .   S
    O2077  C2058     1.27271      .   S
    O1752  C1733     1.27227      .   S
    O866   C847      1.27227      .   S
    O1142  C1123     1.27271      .   S
    H2093  C2057     1.08314      .   S
    H1158  C1122     1.08314      .   S
    H882   C846      1.08313      .   S
    H1418  C1382     1.08334      .   S
    H1768  C1732     1.08313      .   S
    H2386  C2350     1.08334      .   S
    C142   C2849     1.39819      .   S
    C142   H188      1.08257      .   S
    C344   C2589     1.39819      .   S
    C344   H390      1.08257      .   S
    C3109  C553      1.39819      .   S
    C3109  H3155     1.08257      .   S
    C2589  H2635     1.08257      .   S
    C553   H599      1.08257      .   S
    C2849  H2895     1.08257      .   S
    C3295  O3081     1.27227      .   S
    C3265  O2561     1.27233      .   S
    C3275  O247      1.27233      .   S
    C3335  O655      1.27227      .   S
    C3325  O2821     1.27177      .   S
    C3285  O316      1.27177      .   S
    C574   C571      1.40238      .   S
    C574   C576      1.40426      .   S
    C365   C362      1.40238      .   S
    C365   C367      1.40426      .   S
    C2870  C2867     1.40238      .   S
    C2870  C2872     1.40426      .   S
    C163   C160      1.40238      .   S
    C163   C165      1.40426      .   S
    C3130  C3127     1.40238      .   S
    C3130  C3132     1.40426      .   S
    C2610  C2607     1.40238      .   S
    C2610  C2612     1.40426      .   S
    O648   Cr3330    1.87222      .   S
    O309   Cr3280    1.87208      .   S
    O3074  Cr3290    1.87222      .   S
    O240   Cr3270    1.87163      .   S
    O2554  Cr3260    1.87163      .   S
    O2814  Cr3320    1.87208      .   S
    O652   Cr3211    1.88823      .   S
    O313   Cr3201    1.88873      .   S
    O244   Cr3199    1.88832      .   S
    O2558  Cr1662    1.88832      .   S
    O3078  Cr1642    1.88823      .   S
    O2818  Cr1652    1.88873      .   S
    C2607  C2609     1.41016      .   S
    C160   C162      1.41016      .   S
    C2867  C2869     1.41016      .   S
    C362   C364      1.41016      .   S
    C571   C573      1.41016      .   S
    C3127  C3129     1.41016      .   S
    C2540  H2578     1.08260      .   S
    C2800  H2838     1.08260      .   S
    C295   H333      1.08260      .   S
    C226   H264      1.08260      .   S
    C3060  H3098     1.08260      .   S
    C634   H672      1.08260      .   S
    Cr3280 O3148     1.86988      .   S
    Cr3280 O3139     1.87208      .   S
    Cr3330 O2888     1.86975      .   S
    Cr3330 O2879     1.87222      .   S
    Cr3290 O383      1.86975      .   S
    Cr3290 O374      1.87222      .   S
    Cr3270 O2628     1.87089      .   S
    Cr3270 O2619     1.87206      .   S
    Cr3260 O181      1.87089      .   S
    Cr3260 O172      1.87206      .   S
    Cr3320 O592      1.86988      .   S
    Cr3320 O583      1.87208      .   S
    C1383  C2612     1.48181      .   S
    C1383  O252      1.26278      .   S
    C1733  C367      1.48126      .   S
    C1733  O3086     1.26278      .   S
    C2058  C576      1.48129      .   S
    C2058  O2826     1.26278      .   S
    C1123  C3132     1.48129      .   S
    C1123  O321      1.26278      .   S
    C2351  C165      1.48181      .   S
    C2351  O2566     1.26278      .   S
    C847   C2872     1.48126      .   S
    C847   O660      1.26278      .   S
    O3299  Cr3040    1.92532      .   S
    O3339  Cr614     1.92532      .   S
    O3269  Cr2520    1.92607      .   S
    O3329  Cr2780    1.92593      .   S
    O3279  Cr203     1.92607      .   S
    O3289  Cr275     1.92593      .   S
    O2628  C2608     1.26629      .   S
    O383   C363      1.26682      .   S
    O592   C572      1.26639      .   S
    O2888  C2868     1.26682      .   S
    O181   C161      1.26629      .   S
    O3148  C3128     1.26639      .   S
    C2546  O2371     1.26278      .   S
    C2546  C1124     1.48181      .   S
    C3066  O1753     1.26278      .   S
    C3066  C848      1.48126      .   S
    C2806  O2078     1.26278      .   S
    C2806  C1384     1.48153      .   S
    C232   O1403     1.26278      .   S
    C232   C2059     1.48181      .   S
    C301   O1143     1.26278      .   S
    C301   C2352     1.48153      .   S
    C640   O867      1.26278      .   S
    C640   C1734     1.48126      .   S
    C3132  C3134     1.40817      .   S
    C2872  C2874     1.40857      .   S
    C165   C167      1.40860      .   S
    C2612  C2614     1.40860      .   S
    C367   C369      1.40857      .   S
    C576   C578      1.40817      .   S
    O2876  C3331     1.26899      .   S
    O371   C3291     1.26899      .   S
    O3136  C3281     1.26899      .   S
    O169   C3261     1.26899      .   S
    O580   C3321     1.26899      .   S
    O2616  C3271     1.26899      .   S
    C1732  C1734     1.40426      .   S
    C1732  C1729     1.40238      .   S
    C1382  C1384     1.40426      .   S
    C1382  C1379     1.40238      .   S
    C846   C848      1.40426      .   S
    C846   C421      1.40238      .   S
    C2350  C2352     1.40426      .   S
    C2350  C2347     1.40238      .   S
    C2057  C2059     1.40426      .   S
    C2057  C2054     1.40238      .   S
    C1122  C1124     1.40426      .   S
    C1122  C1119     1.40238      .   S
    O2826  Cr1652    1.84892      .   S
    O3086  Cr1642    1.84913      .   S
    O321   Cr3201    1.84892      .   S
    O660   Cr3211    1.84913      .   S
    O2566  Cr1662    1.84852      .   S
    O252   Cr3199    1.84852      .   S
    O3081  Cr3040    1.88990      .   S
    O2821  Cr2780    1.88990      .   S
    O247   Cr203     1.88990      .   S
    O2561  Cr2520    1.88990      .   S
    O655   Cr614     1.88990      .   S
    O316   Cr275     1.88990      .   S
    C573   C572      1.47969      .   S
    C573   C577      1.40076      .   S
    C2609  C2608     1.47969      .   S
    C2609  C2613     1.40062      .   S
    C3129  C3128     1.47969      .   S
    C3129  C3133     1.40076      .   S
    C162   C161      1.47969      .   S
    C162   C166      1.40062      .   S
    C364   C363      1.47969      .   S
    C364   C368      1.40113      .   S
    C2869  C2868     1.47969      .   S
    C2869  C2873     1.40113      .   S
    H388   C342      1.08306      .   S
    H2893  C2847     1.08306      .   S
    H3153  C3107     1.08296      .   S
    H597   C551      1.08296      .   S
    H186   C140      1.08294      .   S
    H2633  C2587     1.08294      .   S
    O1394  C1370     1.27495      .   S
    O1744  C1720     1.27495      .   S
    O2362  C2338     1.27495      .   S
    O2069  C2045     1.27495      .   S
    O1134  C1110     1.27495      .   S
    O858   C412      1.27495      .   S
    Cr1642 O1753     1.84913      .   S
    Cr1642 O1745     1.88823      .   S
    Cr1652 O2078     1.84888      .   S
    Cr1652 O2070     1.88869      .   S
    Cr1662 O2371     1.84852      .   S
    Cr1662 O2363     1.88832      .   S
    Cr3199 O1403     1.84852      .   S
    Cr3199 O1395     1.88832      .   S
    Cr3201 O1143     1.84888      .   S
    Cr3201 O1135     1.88869      .   S
    Cr3211 O867      1.84913      .   S
    Cr3211 O859      1.88823      .   S
    C572   O2824     1.26993      .   S
    C2608  O250      1.27038      .   S
    C161   O2564     1.27038      .   S
    C3128  O319      1.26993      .   S
    C363   O3084     1.27044      .   S
    C2868  O658      1.27044      .   S
    H2092  C2054     1.08330      .   S
    H1157  C1119     1.08330      .   S
    H881   C421      1.08279  1_565   S
    H1417  C1379     1.08281  1_655   S
    H1767  C1729     1.08279  1_655   S
    H2385  C2347     1.08281  1_565   S
    C1124  C1126     1.40860      .   S
    C1384  C1386     1.40878      .   S
    C2352  C2354     1.40878      .   S
    C1734  C1736     1.40857      .   S
    C2059  C2061     1.40860      .   S
    C848   C850      1.40857      .   S
    C2054  C2056     1.41016      .   S
    C1729  C1731     1.41016      .   S
    C1119  C1121     1.41016      .   S
    C2347  C2349     1.41016      .   S
    C421   C845      1.41016      .   S
    C1379  C1381     1.41016      .   S
    C369   C368      1.39027      .   S
    C369   H403      1.08287      .   S
    C578   C577      1.39027      .   S
    C578   H612      1.08327      .   S
    C2614  C2613     1.39027      .   S
    C2614  H2648     1.08338      .   S
    C2874  C2873     1.39027      .   S
    C2874  H2908     1.08287      .   S
    C167   C166      1.39027      .   S
    C167   H201      1.08338      .   S
    C3134  C3133     1.39027      .   S
    C3134  H3168     1.08327      .   S
    O2564  Cr2520    1.87184      .   S
    O658   Cr614     1.87258      .   S
    O2824  Cr2780    1.87307      .   S
    O319   Cr275     1.87307      .   S
    O250   Cr203     1.87184      .   S
    O3084  Cr3040    1.87258      .   S
    C3133  H3167     1.08353      .   S
    C166   H200      1.08312      .   S
    C2873  H2907     1.08312      .   S
    C577   H611      1.08353      .   S
    C368   H402      1.08312      .   S
    C2613  H2647     1.08312      .   S
    C3331  O645      1.26899      .   S
    C3331  C3332     1.48115      .   S
    C3291  O3071     1.26899      .   S
    C3291  C3292     1.48115      .   S
    C3281  O306      1.26899      .   S
    C3281  C3282     1.48115      .   S
    C3261  O2551     1.26899      .   S
    C3261  C3262     1.48115      .   S
    C3321  O2811     1.26899      .   S
    C3321  C3322     1.48115      .   S
    C3271  O237      1.26899      .   S
    C3271  C3272     1.48115      .   S
    Cr203  O237      1.87206      .   S
    Cr203  O239      1.88703      .   S
    Cr275  O306      1.87145      .   S
    Cr275  O308      1.88714      .   S
    Cr614  O645      1.87172      .   S
    Cr614  O647      1.88668      .   S
    Cr3040 O3071     1.87172      .   S
    Cr3040 O3073     1.88668      .   S
    Cr2520 O2551     1.87206      .   S
    Cr2520 O2553     1.88703      .   S
    Cr2780 O2811     1.87145      .   S
    Cr2780 O2813     1.88714      .   S
    O583   C2785     1.26777      .   S
    O2879  C619      1.26808      .   S
    O374   C3045     1.26808      .   S
    O2619  C102      1.26792      .   S
    O172   C2525     1.26792      .   S
    O3139  C280      1.26777      .   S
    C2587  C3272     1.40603      .   S
    C2587  C2588     1.39584      .   S
    C2847  C3332     1.40603      .   S
    C2847  C2848     1.39584      .   S
    C342   C3292     1.40603      .   S
    C342   C343      1.39584      .   S
    C140   C3262     1.40603      .   S
    C140   C141      1.39584      .   S
    C551   C3322     1.40603      .   S
    C551   C552      1.39584      .   S
    C3107  C3282     1.40603      .   S
    C3107  C3108     1.39584      .   S
    C412   O859      1.27302      .   S
    C412   C413      1.50873      .   S
    C1370  O1395     1.27276      .   S
    C1370  C1371     1.50873      .   S
    C1720  O1745     1.27302      .   S
    C1720  C1721     1.50873      .   S
    C2338  O2363     1.27276      .   S
    C2338  C2339     1.50873      .   S
    C2045  O2070     1.27239      .   S
    C2045  C2046     1.50873      .   S
    C1110  O1135     1.27239      .   S
    C1110  C1111     1.50873      .   S
    H2894  C2848     1.08338      .   S
    H389   C343      1.08338      .   S
    H3154  C3108     1.08338      .   S
    H2634  C2588     1.08338      .   S
    H598   C552      1.08338      .   S
    H187   C141      1.08338      .   S
    H2086  C2044     1.08234      .   S
    H1411  C1369     1.08234      .   S
    H1761  C1719     1.08234      .   S
    H875   C411      1.08234      .   S
    H1151  C1109     1.08234      .   S
    H2379  C2337     1.08234      .   S
    C1736  H1770     1.08287      .   S
    C1736  C1735     1.39027      .   S
    C1126  H1160     1.08338      .   S
    C1126  C1125     1.39027      .   S
    C850   H884      1.08287      .   S
    C850   C849      1.39027      .   S
    C1386  H1420     1.08289      .   S
    C1386  C1385     1.39027      .   S
    C2354  H2388     1.08289      .   S
    C2354  C2353     1.39027      .   S
    C2061  H2095     1.08338      .   S
    C2061  C2060     1.39027      .   S
    C3292  C3042     1.40603      .   S
    C3332  C616      1.40603      .   S
    C3282  C277      1.40603      .   S
    C3272  C205      1.40603      .   S
    C3262  C2522     1.40603      .   S
    C3322  C2782     1.40603      .   S
    C2848  C3334     1.40567      .   S
    C141   C3264     1.40557      .   S
    C552   C3324     1.40558      .   S
    C343   C3294     1.40567      .   S
    C2588  C3274     1.40557      .   S
    C3108  C3284     1.40558      .   S
    C2349  C2353     1.40111      .   S
    C2349  C2348     1.47969  1_545   S
    C1121  C1125     1.40062      .   S
    C1121  C1120     1.47969      .   S
    C2056  C2060     1.40062      .   S
    C2056  C2055     1.47969      .   S
    C845   C849      1.40113      .   S
    C845   C422      1.47969  1_545   S
    C1381  C1385     1.40111      .   S
    C1381  C1380     1.47969  1_455   S
    C1731  C1735     1.40113      .   S
    C1731  C1730     1.47969  1_455   S
    C619   O647      1.27040      .   S
    C619   C620      1.49256      .   S
    C102   O239      1.27083      .   S
    C102   C212      1.49198      .   S
    C280   O308      1.27101      .   S
    C280   C281      1.49193      .   S
    C2525  O2553     1.27083      .   S
    C2525  C2526     1.49198      .   S
    C3045  O3073     1.27040      .   S
    C3045  C3046     1.49256      .   S
    C2785  O2813     1.27101      .   S
    C2785  C2786     1.49193      .   S
    O1750  C1730     1.26682      .   S
    O1750  Cr3360    1.86975      .   S
    O864   C422      1.26682      .   S
    O864   Cr3360    1.86975      .   S
    O1140  C1120     1.26629      .   S
    O1140  Cr3400    1.87089      .   S
    O2368  C2348     1.26672      .   S
    O2368  Cr3400    1.87002      .   S
    O1400  C1380     1.26672      .   S
    O1400  Cr3440    1.87002      .   S
    O2075  C2055     1.26629      .   S
    O2075  Cr3440    1.87089      .   S
    H1147  C1101     1.08257      .   S
    H871   C813      1.08257      .   S
    H1757  C1711     1.08257      .   S
    H1407  C1361     1.08257      .   S
    H2082  C2036     1.08257      .   S
    H2375  C2329     1.08257      .   S
    C1369  C1371     1.41110      .   S
    C1369  C1372     1.41201      .   S
    C2337  C2339     1.41110      .   S
    C2337  C2340     1.41201      .   S
    C411   C413      1.41088      .   S
    C411   C414      1.41201      .   S
    C1719  C1721     1.41088      .   S
    C1719  C1722     1.41201      .   S
    C2044  C2046     1.41150      .   S
    C2044  C2047     1.41201      .   S
    C1109  C1111     1.41150      .   S
    C1109  C1112     1.41201      .   S
    C2339  C2343     1.41033      .   S
    C1371  C1375     1.41033      .   S
    C1721  C1725     1.41033      .   S
    C2046  C2050     1.41033      .   S
    C1111  C1115     1.41033      .   S
    C413   C417      1.41033      .   S
    C2353  H2387     1.08292      .   S
    C1735  H1769     1.08312      .   S
    C1385  H1419     1.08292      .   S
    C2060  H2094     1.08312      .   S
    C1125  H1159     1.08312      .   S
    C849   H883      1.08312      .   S
    H3090  C3044     1.08257      .   S
    H2570  C2524     1.08257      .   S
    H256   C101      1.08257      .   S
    H325   C279      1.08257      .   S
    H664   C618      1.08257      .   S
    H2830  C2784     1.08257      .   S
    C2348  O1141     1.27049      .   S
    C422   O1751     1.27044      .   S
    C1380  O2076     1.27049      .   S
    C1730  O865      1.27044      .   S
    C2055  O1401     1.27038      .   S
    C1120  O2369     1.27038      .   S
    Cr3360 O1741     1.87222      .   S
    Cr3360 O855      1.87222      .   S
    Cr3440 O1391     1.87163      .   S
    Cr3440 O2066     1.87206      .   S
    Cr3400 O2359     1.87163      .   S
    Cr3400 O1131     1.87206      .   S
    C1101  C1711     1.39819      .   S
    C1101  C1103     1.40697      .   S
    C813   C2036     1.39819      .   S
    C813   C815      1.40665      .   S
    C1361  C2329     1.39819      .   S
    C1361  C1363     1.40707      .   S
    C2329  C2331     1.40707      .   S
    C2036  C2038     1.40697      .   S
    C1711  C1713     1.40665      .   S
    C205   H254      1.08349      .   S
    C205   C100      1.39584      .   S
    C2782  H2828     1.08296      .   S
    C2782  C2783     1.39584      .   S
    C616   H662      1.08306      .   S
    C616   C617      1.39584      .   S
    C3042  H3088     1.08306      .   S
    C3042  C3043     1.39584      .   S
    C2522  H2568     1.08349      .   S
    C2522  C2523     1.39584      .   S
    C277   H323      1.08296      .   S
    C277   C278      1.39584      .   S
    O1391  C2037     1.26837      .   S
    O1741  C814      1.26808      .   S
    O2359  C1102     1.26837      .   S
    O855   C1712     1.26808      .   S
    O1131  C2330     1.26792      .   S
    O2066  C1362     1.26792      .   S
    C3284  C278      1.40558      .   S
    C3284  C3283     1.48157      .   S
    C3294  C3043     1.40567      .   S
    C3294  C3293     1.48126      .   S
    C3334  C617      1.40567      .   S
    C3334  C3333     1.48126      .   S
    C3264  C2523     1.40611      .   S
    C3264  C3263     1.48055      .   S
    C3274  C100      1.40611      .   S
    C3274  C3273     1.48055      .   S
    C3324  C2783     1.40558      .   S
    C3324  C3323     1.48157      .   S
    C101   C212      1.40707      .   S
    C101   C2719     1.39819      .   S
    C618   C620      1.40665      .   S
    C618   C2979     1.39819      .   S
    C3044  C3046     1.40665      .   S
    C3044  C683      1.39819      .   S
    C2524  C2526     1.40707      .   S
    C2524  C480      1.39819      .   S
    C2784  C2786     1.40726      .   S
    C2784  C4        1.39819      .   S
    C279   C281      1.40726      .   S
    C279   C2459     1.39819      .   S
    C281   C282      1.40821      .   S
    C2786  C2787     1.40821      .   S
    C212   C213      1.40840      .   S
    C3046  C3047     1.40850      .   S
    C620   C621      1.40850      .   S
    C2526  C2527     1.40840      .   S
    H2892  C2846     1.08337      .   S
    H185   C139      1.08295      .   S
    H387   C341      1.08337      .   S
    H3152  C3106     1.08308      .   S
    H596   C550      1.08308      .   S
    H2632  C2586     1.08295      .   S
    H876   C414      1.08341  1_545   S
    H2087  C2047     1.08218      .   S
    H1412  C1372     1.08299  1_455   S
    H1762  C1722     1.08341  1_455   S
    H1152  C1112     1.08218      .   S
    H2380  C2340     1.08299  1_545   S
    O2877  Cr3171    1.87068      .   S
    O2877  C3333     1.26804      .   S
    O2617  Cr3174    1.87068      .   S
    O2617  C3273     1.26848      .   S
    O170   Cr3171    1.87068      .   S
    O170   C3263     1.26848      .   S
    O581   Cr3177    1.87068      .   S
    O581   C3323     1.26797      .   S
    O3137  Cr3177    1.87068      .   S
    O3137  C3283     1.26797      .   S
    O372   Cr3174    1.87068      .   S
    O372   C3293     1.26804      .   S
    C1722  C1724     1.41131      .   S
    C2047  C2049     1.41161      .   S
    C414   C416      1.41131      .   S
    C2340  C2342     1.41150      .   S
    C1372  C1374     1.41150      .   S
    C1112  C1114     1.41161      .   S
    C417   H877      1.08286      .   S
    C417   C418      1.40647      .   S
    C1375  H1413     1.08264      .   S
    C1375  C1376     1.40647      .   S
    C1115  H1153     1.08224      .   S
    C1115  C1116     1.40647      .   S
    C2050  H2088     1.08224      .   S
    C2050  C2051     1.40647      .   S
    C1725  H1763     1.08286      .   S
    C1725  C1726     1.40647      .   S
    C2343  H2381     1.08264      .   S
    C2343  C2344     1.40647      .   S
    C278   H324      1.08338      .   S
    C2783  H2829     1.08338      .   S
    C100   H255      1.08338      .   S
    C3043  H3089     1.08338      .   S
    C2523  H2569     1.08338      .   S
    C617   H663      1.08338      .   S
    O1401  Cr1357    1.87184      .   S
    O865   Cr809     1.87258      .   S
    O2369  Cr2325    1.87184      .   S
    O1751  Cr1707    1.87258      .   S
    O1141  Cr1097    1.87232      .   S
    O2076  Cr2032    1.87232      .   S
    Cr3174 O2615     1.86955      .   S
    Cr3174 O370      1.86955      .   S
    Cr3171 O168      1.86955      .   S
    Cr3171 O2875     1.86955      .   S
    Cr3171 O3530     1.92487      .   S
    Cr3177 O579      1.86955      .   S
    Cr3177 O3135     1.86955      .   S
    Cr3177 O3528     1.92469      .   S
    C1103  C1102     1.49130      .   S
    C1103  C1104     1.40882      .   S
    C815   C814      1.49256      .   S
    C815   C816      1.40850      .   S
    C2038  C2037     1.49130      .   S
    C2038  C2039     1.40882      .   S
    C1363  C1362     1.49198      .   S
    C1363  C1364     1.40840      .   S
    C2331  C2330     1.49198      .   S
    C2331  C2332     1.40840      .   S
    C1713  C1712     1.49256      .   S
    C1713  C1714     1.40850      .   S
    C3323  O2812     1.26797      .   S
    C3333  O646      1.26804      .   S
    C3293  O3072     1.26804      .   S
    C3283  O307      1.26797      .   S
    C3273  O238      1.26793      .   S
    C3263  O2552     1.26793      .   S
    C2330  O2358     1.27083      .   S
    C814   O854      1.27040      .   S
    C2037  O2065     1.27072      .   S
    C1362  O1390     1.27083      .   S
    C1712  O1740     1.27040      .   S
    C1102  O1130     1.27072      .   S
    C341   C3106     1.39567      .   S
    C341   C3491     1.40880      .   S
    C139   C2586     1.39567      .   S
    C139   C3485     1.40890      .   S
    C2846  C550      1.39567      .   S
    C2846  C3499     1.40880      .   S
    C550   C3497     1.40848      .   S
    C2586  C3487     1.40890      .   S
    C3106  C3489     1.40848      .   S
    H3025  C2979     1.08257      .   S
    H2765  C2719     1.08257      .   S
    H729   C683      1.08257      .   S
    H51    C4        1.08257      .   S
    H2505  C2459     1.08257      .   S
    H526   C480      1.08257      .   S
    O579   C3496     1.26845      .   S
    O2615  C3486     1.26845      .   S
    O168   C3484     1.26845      .   S
    O370   C3490     1.26845      .   S
    O2875  C3498     1.26845      .   S
    O3135  C3488     1.26845      .   S
    C2719  C2721     1.40707      .   S
    C2459  C2461     1.40726      .   S
    C2979  C2981     1.40697      .   S
    C4     C6        1.40726      .   S
    C683   C685      1.40697      .   S
    C480   C482      1.40707      .   S
    O3449  Cr1357    1.92607      .   S
    O3449  Cr2032    1.92498      .   S
    O3369  Cr1707    1.92532      .   S
    O3369  Cr809     1.92532      .   S
    O3409  Cr2325    1.92607      .   S
    O3409  Cr1097    1.92498      .   S
    C282   H326      1.08261      .   S
    C282   C2462     1.40510      .   S
    C621   H665      1.08261      .   S
    C621   C2982     1.40510      .   S
    C2527  H2571     1.08261      .   S
    C2527  C483      1.40510      .   S
    C2787  H2831     1.08261      .   S
    C2787  C7        1.40510      .   S
    C213   H257      1.08261      .   S
    C213   C2722     1.40510      .   S
    C3047  H3091     1.08261      .   S
    C3047  C686      1.40510      .   S
    C2342  C2344     1.41009      .   S
    C2342  C2341     1.50834      .   S
    C1374  C1376     1.41009      .   S
    C1374  C1373     1.50834      .   S
    C1724  C1726     1.41009      .   S
    C1724  C1723     1.50834      .   S
    C2049  C2051     1.41009      .   S
    C2049  C2048     1.50834      .   S
    C1114  C1116     1.41009      .   S
    C1114  C1113     1.50834      .   S
    C416   C418      1.41009      .   S
    C416   C415      1.50834      .   S
    C2344  H2382     1.08243      .   S
    C418   H878      1.08263      .   S
    C1726  H1764     1.08263      .   S
    C2051  H2089     1.08230      .   S
    C1376  H1414     1.08243      .   S
    C1116  H1154     1.08230      .   S
    O854   Cr809     1.88668      .   S
    O2358  Cr2325    1.88703      .   S
    O1740  Cr1707    1.88668      .   S
    O2065  Cr2032    1.88729      .   S
    O1130  Cr1097    1.88729      .   S
    O1390  Cr1357    1.88703      .   S
    C2332  C1364     1.40510      .   S
    C2332  H2376     1.08261      .   S
    C1364  H1408     1.08261      .   S
    C1714  C1104     1.40510      .   S
    C1714  H1758     1.08261      .   S
    C2039  C816      1.40510      .   S
    C2039  H2083     1.08261      .   S
    C816   H872      1.08261      .   S
    C1104  H1148     1.08261      .   S
    C3489  C3488     1.40622      .   S
    C3489  C276      1.40848      .   S
    C3485  C3484     1.40622      .   S
    C3485  C2521     1.40836      .   S
    C3487  C3486     1.40622      .   S
    C3487  C204      1.40836      .   S
    C3499  C3498     1.40622      .   S
    C3499  C615      1.40880      .   S
    C3497  C3496     1.40622      .   S
    C3497  C2781     1.40848      .   S
    C3491  C3490     1.40622      .   S
    C3491  C3041     1.40880      .   S
    C3486  O236      1.26845      .   S
    C3488  O305      1.26845      .   S
    C3498  O644      1.26845      .   S
    C3496  O2810     1.26845      .   S
    C3490  O3070     1.26845      .   S
    C3484  O2550     1.26845      .   S
    O3072  Cr3179    1.87068      .   S
    O2812  Cr3169    1.87068      .   S
    O646   Cr3178    1.87068      .   S
    O238   Cr3172    1.87068      .   S
    O2552  Cr3176    1.87068      .   S
    O307   Cr3173    1.87068      .   S
    Cr1707 O1748     1.88990      .   S
    Cr1707 O1738     1.87172      .   S
    Cr2325 O2366     1.88990      .   S
    Cr2325 O2356     1.87206      .   S
    Cr1357 O1398     1.88990      .   S
    Cr1357 O1388     1.87206      .   S
    Cr809  O862      1.88990      .   S
    Cr809  O852      1.87172      .   S
    Cr1097 O1138     1.88990      .   S
    Cr1097 O1128     1.87187      .   S
    Cr2032 O2073     1.88990      .   S
    Cr2032 O2063     1.87187      .   S
    C2461  C2462     1.40821      .   S
    C2461  C2460     1.49193      .   S
    C482   C483      1.40840      .   S
    C482   C481      1.49198      .   S
    C6     C7        1.40821      .   S
    C6     C5        1.49193      .   S
    C2721  C2722     1.40840      .   S
    C2721  C2720     1.49198      .   S
    C2981  C2982     1.40882      .   S
    C2981  C2980     1.49130      .   S
    C685   C686      1.40882      .   S
    C685   C684      1.49130      .   S
    C7     H52       1.08261      .   S
    C2982  H3026     1.08261      .   S
    C2722  H2766     1.08261      .   S
    C686   H730      1.08261      .   S
    C2462  H2506     1.08261      .   S
    C483   H527      1.08261      .   S
    O3531  Cr3172    1.92433      .   S
    O3531  Cr3179    1.92487      .   S
    O3530  Cr3176    1.92433      .   S
    O3528  Cr3173    1.92469      .   S
    O1746  C1723     1.27469  1_455   S
    O1746  Cr1676    1.89821      .   S
    O1136  C1113     1.27469      .   S
    O1136  Cr1680    1.89821      .   S
    O1396  C1373     1.27469  1_455   S
    O1396  Cr1684    1.89821      .   S
    O2364  C2341     1.27469  1_545   S
    O2364  Cr1680    1.89821      .   S
    O2071  C2048     1.27469      .   S
    O2071  Cr1684    1.89821      .   S
    O860   C415      1.27469  1_545   S
    O860   Cr1676    1.89821      .   S
    C415   O861      1.27252      .   S
    C1373  O1397     1.27273      .   S
    C2048  O2072     1.27285      .   S
    C2341  O2365     1.27273      .   S
    C1113  O1137     1.27285      .   S
    C1723  O1747     1.27252      .   S
    O1748  C3365     1.27227      .   S
    O2073  C3445     1.27123      .   S
    O1138  C3405     1.27123      .   S
    O862   C3365     1.27227      .   S
    O1398  C3445     1.27233      .   S
    O2366  C3405     1.27233      .   S
    C615   C2781     1.39567      .   S
    C615   H661      1.08337      .   S
    C276   C3041     1.39567      .   S
    C276   H322      1.08308      .   S
    C2521  C204      1.39567      .   S
    C2521  H2567     1.08350      .   S
    C2781  H2827     1.08308      .   S
    C204   H253      1.08350      .   S
    C3041  H3087     1.08337      .   S
    O2550  Cr3176    1.86955      .   S
    O644   Cr3178    1.86955      .   S
    O305   Cr3173    1.86955      .   S
    O236   Cr3172    1.86955      .   S
    O3070  Cr3179    1.86955      .   S
    O2810  Cr3169    1.86955      .   S
    C3445  C3446     1.50353      .   S
    C3365  C3366     1.50353      .   S
    C3405  C3406     1.50353      .   S
    O2749  C684      1.26837      .   S
    O2749  Cr3340    1.87163      .   S
    O3009  C481      1.26792      .   S
    O3009  Cr3310    1.87206      .   S
    O713   C2720     1.26792      .   S
    O713   Cr3340    1.87206      .   S
    O510   C2980     1.26837      .   S
    O510   Cr3310    1.87163      .   S
    O35    C2460     1.26777      .   S
    O35    Cr3240    1.87208      .   S
    O2489  C5        1.26777      .   S
    O2489  Cr3240    1.87208      .   S
    Cr3172 O2747     1.87068      .   S
    Cr3172 O2745     1.86955      .   S
    Cr3173 O2487     1.87068      .   S
    Cr3173 O2485     1.86955      .   S
    Cr3176 O508      1.87068      .   S
    Cr3176 O506      1.86955      .   S
    Cr3178 O3007     1.87068      .   S
    Cr3178 O3005     1.86955      .   S
    Cr3169 O33       1.87068      .   S
    Cr3169 O31       1.86955      .   S
    Cr3179 O711      1.87068      .   S
    Cr3179 O709      1.86955      .   S
    C3366  C419      1.40869      .   S
    C3366  C1727     1.40869      .   S
    C3446  C1377     1.40922      .   S
    C3446  C2052     1.40868      .   S
    C3406  C2345     1.40922      .   S
    C3406  C1117     1.40868      .   S
    H1765  C1727     1.08260      .   S
    H879   C419      1.08260      .   S
    H1155  C1117     1.08260      .   S
    H2383  C2345     1.08260      .   S
    H2090  C2052     1.08260      .   S
    H1415  C1377     1.08260      .   S
    C2460  O2488     1.27101      .   S
    C481   O509      1.27083      .   S
    C5     O34       1.27101      .   S
    C2980  O3008     1.27072      .   S
    C2720  O2748     1.27083      .   S
    C684   O712      1.27072      .   S
    O852   C3361     1.26899      .   S
    O2356  C3401     1.26899      .   S
    O1738  C3361     1.26899      .   S
    O1128  C3401     1.26899      .   S
    O1388  C3441     1.26899      .   S
    O2063  C3441     1.26899      .   S
    C1377  C1378     1.40693      .   S
    C2345  C2346     1.40693      .   S
    C419   C420      1.40693      .   S
    C1117  C1118     1.40693      .   S
    C2052  C2053     1.40693      .   S
    C1727  C1728     1.40693      .   S
    O1747  Cr3229    1.88921      .   S
    O2365  Cr3233    1.88907      .   S
    O861   Cr3228    1.88921      .   S
    O1137  Cr3232    1.88931      .   S
    O1397  Cr3236    1.88907      .   S
    O2072  Cr3237    1.88931      .   S
    Cr1676 O925      1.89821      .   S
    Cr1676 O836      1.89821      .   S
    Cr1680 O2299     1.89821      .   S
    Cr1680 O1201     1.89821      .   S
    Cr1684 O1461     1.89821      .   S
    Cr1684 O1071     1.89821      .   S
    O3007  C3313     1.26848      .   S
    O508   C3313     1.26793      .   S
    O711   C3343     1.26848      .   S
    O33    C3243     1.26797      .   S
    O2747  C3343     1.26793      .   S
    O2487  C3243     1.26797      .   S
    C420   H880      1.08308      .   S
    C420   C3368     1.41318      .   S
    C1728  H1766     1.08308      .   S
    C1728  C3368     1.41318      .   S
    C2346  H2384     1.08308      .   S
    C2346  C3408     1.41318      .   S
    C2053  H2091     1.08308      .   S
    C2053  C3448     1.41318      .   S
    C1118  H1156     1.08308      .   S
    C1118  C3408     1.41318      .   S
    C1378  H1416     1.08308      .   S
    C1378  C3448     1.41318      .   S
    C3361  C3362     1.48115      .   S
    C3401  C3402     1.48115      .   S
    C3441  C3442     1.48115      .   S
    C3243  C3244     1.48157      .   S
    C3313  C3314     1.48055      .   S
    C3343  C3344     1.48055      .   S
    C3408  C3407     1.42548      .   S
    C3368  C3367     1.42548      .   S
    C3448  C3447     1.42548      .   S
    Cr3240 O2498     1.86988      .   S
    Cr3240 O44       1.86988      .   S
    Cr3340 O722      1.87089      .   S
    Cr3340 O2758     1.87002      .   S
    Cr3310 O519      1.87002      .   S
    Cr3310 O3018     1.87089      .   S
    O509   Cr476     1.88703      .   S
    O2488  Cr2455    1.88714      .   S
    O2748  Cr2715    1.88703      .   S
    O34    Cr0       1.88714      .   S
    O3008  Cr2975    1.88729      .   S
    O712   Cr679     1.88729      .   S
    C3344  C2718     1.40611      .   S
    C3344  C682      1.40557      .   S
    C3244  C2458     1.40558      .   S
    C3244  C3        1.40558      .   S
    C3314  C479      1.40611      .   S
    C3314  C2978     1.40557      .   S
    C3447  O1399     1.27301      .   S
    C3447  O2074     1.27301      .   S
    C3407  O1139     1.27301      .   S
    C3407  O2367     1.27301      .   S
    C3367  O863      1.27301      .   S
    C3367  O1749     1.27301      .   S
    O2299  C2276     1.27469      .   S
    O1461  C1438     1.27469      .   S
    O1071  C2113     1.27469  1_455   S
    O925   C902      1.27469  1_455   S
    O836   C1633     1.27469  1_545   S
    O1201  C1178     1.27469  1_545   S
    H2504  C2458     1.08338      .   S
    H728   C682      1.08338      .   S
    H3024  C2978     1.08338      .   S
    H2764  C2718     1.08338      .   S
    H50    C3        1.08338      .   S
    H525   C479      1.08338      .   S
    O1681  Cr3233    1.92625      .   S
    O1681  Cr3232    1.92625  1_565   S
    O1685  Cr3236    1.92625      .   S
    O1685  Cr3237    1.92625  1_655   S
    O1677  Cr3229    1.92625  1_565   S
    O1677  Cr3228    1.92625  1_655   S
    O31    C3480     1.26845      .   S
    O2485  C3480     1.26845      .   S
    O3005  C3494     1.26845      .   S
    O2745  C3500     1.26845      .   S
    O709   C3500     1.26845      .   S
    O506   C3494     1.26845      .   S
    O1399  Cr3236    1.89044      .   S
    O2074  Cr3237    1.89044  1_655   S
    O1139  Cr3232    1.89044  1_565   S
    O863   Cr3228    1.89044  1_655   S
    O2367  Cr3233    1.89044      .   S
    O1749  Cr3229    1.89044  1_565   S
    C479   C478      1.39584      .   S
    C2718  C2717     1.39584      .   S
    C2458  C2457     1.39584      .   S
    C3     C2        1.39584      .   S
    C2978  C2977     1.39584      .   S
    C682   C681      1.39584      .   S
    O519   C499      1.26672      .   S
    O722   C702      1.26629      .   S
    O2498  C2478     1.26639      .   S
    O2758  C2738     1.26672      .   S
    O44    C23       1.26639      .   S
    O3018  C2998     1.26629      .   S
    C3362  C811      1.40603      .   S
    C3362  C1709     1.40603      .   S
    C3442  C1359     1.40603      .   S
    C3442  C2034     1.40603      .   S
    C3402  C1099     1.40603      .   S
    C3402  C2327     1.40603      .   S
    C3480  C3481     1.40622      .   S
    C3494  C3495     1.40622      .   S
    C3500  C3501     1.40622      .   S
    Cr3236 O1072     1.88907      .   S
    Cr3236 O1074     1.89044      .   S
    Cr3237 O1462     1.88931      .   S
    Cr3237 O1464     1.89044  1_455   S
    Cr3233 O1202     1.88907      .   S
    Cr3233 O1204     1.89044      .   S
    Cr3232 O2300     1.88931      .   S
    Cr3232 O2302     1.89044  1_545   S
    Cr3229 O926      1.88967      .   S
    Cr3229 O928      1.89044  1_545   S
    Cr3228 O837      1.88967      .   S
    Cr3228 O839      1.89044  1_455   S
    C681   H727      1.08294      .   S
    C681   C3342     1.40603      .   S
    C478   H524      1.08349      .   S
    C478   C3312     1.40603      .   S
    C2977  H3023     1.08294      .   S
    C2977  C3312     1.40603      .   S
    C2     H49       1.08296      .   S
    C2     C3242     1.40603      .   S
    C2717  H2763     1.08349      .   S
    C2717  C3342     1.40603      .   S
    C2457  H2503     1.08296      .   S
    C2457  C3242     1.40603      .   S
    H1477  C1437     1.08218      .   S
    H1087  C2112     1.08299  1_455   S
    H941   C901      1.08292  1_455   S
    H2315  C2275     1.08218      .   S
    H1697  C1632     1.08292  1_545   S
    H1217  C1177     1.08299  1_545   S
    H1145  C1099     1.08294      .   S
    H1755  C1709     1.08306      .   S
    H869   C811      1.08306      .   S
    H2080  C2034     1.08294      .   S
    H2373  C2327     1.08349      .   S
    H1405  C1359     1.08349      .   S
    C3312  C3311     1.48115      .   S
    C3342  C3341     1.48115      .   S
    C3242  C3241     1.48115      .   S
    C2276  O2300     1.27285      .   S
    C2276  C2277     1.50834      .   S
    C1178  O1202     1.27273      .   S
    C1178  C1179     1.50834      .   S
    C1438  O1462     1.27285      .   S
    C1438  C1439     1.50834      .   S
    C2113  O1072     1.27273      .   S
    C2113  C2114     1.50834      .   S
    C902   O926      1.27227      .   S
    C902   C903      1.50834      .   S
    C1633  O837      1.27227      .   S
    C1633  C1634     1.50834      .   S
    O3249  Cr0       1.92593      .   S
    O3249  Cr2455    1.92593      .   S
    O3349  Cr2715    1.92607      .   S
    O3349  Cr679     1.92498      .   S
    O3319  Cr2975    1.92498      .   S
    O3319  Cr476     1.92607      .   S
    C3241  O2486     1.26899      .   S
    C3241  O32       1.26899      .   S
    C3311  O507      1.26899      .   S
    C3311  O3006     1.26899      .   S
    C3341  O710      1.26899      .   S
    C3341  O2746     1.26899      .   S
    C1359  C1360     1.39584      .   S
    C2034  C2035     1.39584      .   S
    C1099  C1100     1.39584      .   S
    C811   C812      1.39584      .   S
    C2327  C2328     1.39584      .   S
    C1709  C1710     1.39584      .   S
    H61    C22       1.08317      .   S
    H2775  C2737     1.08281      .   S
    H270   C498      1.08281      .   S
    H3035  C2997     1.08330      .   S
    H739   C701      1.08330      .   S
    H2515  C2477     1.08317      .   S
    O710   Cr679     1.87187      .   S
    O2486  Cr2455    1.87145      .   S
    O2746  Cr2715    1.87206      .   S
    O507   Cr476     1.87206      .   S
    O3006  Cr2975    1.87187      .   S
    O32    Cr0       1.87145      .   S
    C2478  O45       1.26993      .   S
    C2478  C2479     1.47969      .   S
    C2738  O723      1.27049      .   S
    C2738  C2739     1.47969      .   S
    C499   O3019     1.27049      .   S
    C499   C500      1.47969      .   S
    C2998  O520      1.27038      .   S
    C2998  C2999     1.47969      .   S
    C23    O2499     1.26993      .   S
    C23    C24       1.47969      .   S
    C702   O2759     1.27038      .   S
    C702   C703      1.47969      .   S
    C901   C903      1.41102      .   S
    C901   C898      1.41201      .   S
    C1632  C1634     1.41102      .   S
    C1632  C1629     1.41201      .   S
    C1437  C1439     1.41161      .   S
    C1437  C1434     1.41201      .   S
    C1177  C1179     1.41150      .   S
    C1177  C1174     1.41201      .   S
    C2112  C2114     1.41150      .   S
    C2112  C2109     1.41201      .   S
    C2275  C2277     1.41161      .   S
    C2275  C2272     1.41201      .   S
    Cr2975 O3019     1.87232      .   S
    Cr2975 O3016     1.88990      .   S
    Cr0    O45       1.87307      .   S
    Cr0    O42       1.88990      .   S
    Cr2455 O2499     1.87307      .   S
    Cr2455 O2496     1.88990      .   S
    Cr2715 O2759     1.87184      .   S
    Cr2715 O2756     1.88990      .   S
    Cr476  O520      1.87184      .   S
    Cr476  O517      1.88990      .   S
    Cr679  O723      1.87232      .   S
    Cr679  O720      1.88990      .   S
    C1439  C1441     1.41009      .   S
    C2114  C2116     1.41009      .   S
    C903   C905      1.41009      .   S
    C1179  C1181     1.41009      .   S
    C2277  C2279     1.41009      .   S
    C1634  C1636     1.41009      .   S
    C3481  C1        1.40848      .   S
    C3481  C2456     1.40848      .   S
    C3495  C2976     1.40890      .   S
    C3495  C477      1.40836      .   S
    C3501  C680      1.40890      .   S
    C3501  C2716     1.40836      .   S
    C2477  C2479     1.41016      .   S
    C2477  C2480     1.40238      .   S
    C2737  C2739     1.41016      .   S
    C2737  C2740     1.40238      .   S
    C22    C24       1.41016      .   S
    C22    C25       1.40238      .   S
    C498   C500      1.41016      .   S
    C498   C501      1.40238      .   S
    C701   C703      1.41016      .   S
    C701   C704      1.40238      .   S
    C2997  C2999     1.41016      .   S
    C2997  C3000     1.40238      .   S
    H3022  C2976     1.08295      .   S
    H523   C477      1.08350      .   S
    H2762  C2716     1.08350      .   S
    H726   C680      1.08295      .   S
    H48    C1        1.08308      .   S
    H2502  C2456     1.08308      .   S
    C2479  C2483     1.40076      .   S
    C500   C504      1.40111      .   S
    C703   C707      1.40062      .   S
    C24    C29       1.40076      .   S
    C2739  C2743     1.40111      .   S
    C2999  C3003     1.40062      .   S
    H940   C898      1.08234      .   S
    H1696  C1629     1.08234      .   S
    H1086  C2109     1.08234      .   S
    H1216  C1174     1.08234      .   S
    H1476  C1434     1.08234      .   S
    H2314  C2272     1.08234      .   S
    C1360  H1406     1.08338      .   S
    C1360  C3444     1.40611      .   S
    C2035  H2081     1.08338      .   S
    C2035  C3444     1.40557      .   S
    C1100  H1146     1.08338      .   S
    C1100  C3404     1.40557      .   S
    C2328  H2374     1.08338      .   S
    C2328  C3404     1.40611      .   S
    C812   H870      1.08338      .   S
    C812   C3364     1.40567      .   S
    C1710  H1756     1.08338      .   S
    C1710  C3364     1.40567      .   S
    C1629  C1631     1.41116      .   S
    C1174  C1176     1.41110      .   S
    C2272  C2274     1.41150      .   S
    C2109  C2111     1.41110      .   S
    C1434  C1436     1.41150      .   S
    C898   C900      1.41116      .   S
    H740   C704      1.08314      .   S
    H271   C501      1.08334      .   S
    H2516  C2480     1.08273      .   S
    H62    C25       1.08273      .   S
    H2776  C2740     1.08334      .   S
    H3036  C3000     1.08314      .   S
    C680   C2651     1.39567      .   S
    C1     C2391     1.39567      .   S
    C2716  C745      1.39567      .   S
    C2456  C67       1.39567      .   S
    C2976  C406      1.39567      .   S
    C477   C2911     1.39567      .   S
    O1074  C3457     1.27301      .   S
    O839   C3377     1.27301      .   S
    O1204  C3417     1.27301      .   S
    O928   C3377     1.27301      .   S
    O2302  C3417     1.27301      .   S
    O1464  C3457     1.27301      .   S
    C2480  C2482     1.40426      .   S
    C3000  C3002     1.40426      .   S
    C2740  C2742     1.40426      .   S
    C704   C706      1.40426      .   S
    C25    C28       1.40426      .   S
    C501   C503      1.40426      .   S
    C1181  H1219     1.08243      .   S
    C1181  C1180     1.40647      .   S
    C2116  H1089     1.08243      .   S
    C2116  C2115     1.40647      .   S
    C1441  H1479     1.08230      .   S
    C1441  C1440     1.40647      .   S
    C1636  H1699     1.08289      .   S
    C1636  C1635     1.40647      .   S
    C905   H943      1.08289      .   S
    C905   C904      1.40647      .   S
    C2279  H2317     1.08230      .   S
    C2279  C2278     1.40647      .   S
    C3364  C3363     1.48126      .   S
    C3444  C3443     1.48055      .   S
    C3404  C3403     1.48055      .   S
    C2483  H2517     1.08353      .   S
    C2483  C2484     1.39027      .   S
    C504   H272      1.08292      .   S
    C504   C505      1.39027      .   S
    C707   H741      1.08312      .   S
    C707   C708      1.39027      .   S
    C2743  H2777     1.08292      .   S
    C2743  C2744     1.39027      .   S
    C3003  H3037     1.08312      .   S
    C3003  C3004     1.39027      .   S
    C29    H63       1.08353      .   S
    C29    C30       1.39027      .   S
    C3457  C3458     1.42548      .   S
    C3417  C3418     1.42548      .   S
    C3377  C3378     1.42548      .   S
    C2274  C2278     1.41033      .   S
    C2274  C2273     1.50873      .   S
    C900   C904      1.41033      .   S
    C900   C899      1.50873      .   S
    C1436  C1440     1.41033      .   S
    C1436  C1435     1.50873      .   S
    C2111  C2115     1.41033      .   S
    C2111  C2110     1.50873      .   S
    C1176  C1180     1.41033      .   S
    C1176  C1175     1.50873      .   S
    C1631  C1635     1.41033      .   S
    C1631  C1630     1.50873      .   S
    O720   C3345     1.27123      .   S
    O2496  C3245     1.27177      .   S
    O517   C3315     1.27233      .   S
    O42    C3245     1.27177      .   S
    O3016  C3315     1.27123      .   S
    O2756  C3345     1.27233      .   S
    C2482  C2484     1.40817      .   S
    C2482  C1448     1.48129      .   S
    C28    C30       1.40817      .   S
    C28    C2286     1.48129      .   S
    C706   C708      1.40860      .   S
    C706   C2123     1.48181      .   S
    C2742  C2744     1.40878      .   S
    C2742  C912      1.48153      .   S
    C3002  C3004     1.40860      .   S
    C3002  C1188     1.48181      .   S
    C503   C505      1.40878      .   S
    C503   C823      1.48153      .   S
    C1635  H1698     1.08261      .   S
    C904   H942      1.08261      .   S
    C1180  H1218     1.08264      .   S
    C2115  H1088     1.08264      .   S
    C2278  H2316     1.08224      .   S
    C1440  H1478     1.08224      .   S
    C708   H742      1.08338      .   S
    C2484  H2518     1.08327      .   S
    C2744  H2778     1.08289      .   S
    C30    H64       1.08327      .   S
    C3004  H3038     1.08338      .   S
    C505   H273      1.08289      .   S
    C2911  H2957     1.08350      .   S
    C2911  C3493     1.40836      .   S
    C406   H458      1.08295      .   S
    C406   C3493     1.40890      .   S
    C2391  H2437     1.08337      .   S
    C2391  C3483     1.40880      .   S
    C67    H116      1.08337      .   S
    C67    C3483     1.40880      .   S
    C2651  H2697     1.08295      .   S
    C2651  C3503     1.40890      .   S
    C745   H791      1.08350      .   S
    C745   C3503     1.40836      .   S
    O1199  C1175     1.27495      .   S
    O1199  Cr1161    1.90167      .   S
    O1069  C2110     1.27495      .   S
    O1069  Cr2096    1.90167      .   S
    O923   C899      1.27495      .   S
    O923   Cr885     1.90167      .   S
    O834   C1630     1.27495      .   S
    O834   Cr1616    1.90167      .   S
    O2297  C2273     1.27495      .   S
    O2297  Cr2259    1.90167      .   S
    O1459  C1435     1.27495      .   S
    O1459  Cr1421    1.90167      .   S
    C3363  O853      1.26804      .   S
    C3363  O1739     1.26804      .   S
    C3403  O2357     1.26793      .   S
    C3403  O1129     1.26848      .   S
    C3443  O1389     1.26793      .   S
    C3443  O2064     1.26848      .   S
    C3245  C3246     1.50353      .   S
    C3315  C3316     1.50353      .   S
    C3345  C3346     1.50353      .   S
    O2305  C2286     1.27271      .   S
    O2305  Cr2259    1.89273      .   S
    O842   C823      1.27213      .   S
    O842   Cr1616    1.89273      .   S
    O1207  C1188     1.27224      .   S
    O1207  Cr1161    1.89273      .   S
    O1077  C2123     1.27224      .   S
    O1077  Cr2096    1.89273      .   S
    O931   C912      1.27213      .   S
    O931   Cr885     1.89273      .   S
    O1467  C1448     1.27271      .   S
    O1467  Cr1421    1.89273      .   S
    C3493  C3492     1.40622      .   S
    C3503  C3502     1.40622      .   S
    C3483  C3482     1.40622      .   S
    C1630  O835      1.27276      .   S
    C899   O924      1.27276      .   S
    C1175  O1200     1.27276      .   S
    C1435  O1460     1.27239      .   S
    C2110  O1070     1.27276      .   S
    C2273  O2298     1.27239      .   S
    C823   O3021     1.26278      .   S
    C1448  O47       1.26278      .   S
    C2123  O2761     1.26278      .   S
    C912   O725      1.26278      .   S
    C1188  O522      1.26278      .   S
    C2286  O2501     1.26278      .   S
    H3028  C2986     1.08252      .   S
    H2768  C2726     1.08252      .   S
    H732   C690      1.08252      .   S
    H529   C487      1.08252      .   S
    H54    C11       1.08252      .   S
    H2508  C2466     1.08252      .   S
    H1084  C2105     1.08272      .   S
    H938   C894      1.08286      .   S
    H1214  C1170     1.08272      .   S
    H2312  C2268     1.08302      .   S
    H1474  C1430     1.08302      .   S
    H1694  C1625     1.08286      .   S
    O1389  Cr3189    1.87068      .   S
    O2357  Cr3189    1.87068      .   S
    O853   Cr3181    1.87068      .   S
    O1129  Cr3185    1.87068      .   S
    O2064  Cr3181    1.87068      .   S
    O1739  Cr3185    1.87068      .   S
    C3418  C2281     1.41318      .   S
    C3418  C1183     1.41318      .   S
    C3458  C1443     1.41318      .   S
    C3458  C2118     1.41318      .   S
    C3378  C907      1.41318      .   S
    C3378  C1638     1.41318      .   S
    H1221  C1183     1.08308      .   S
    H1091  C2118     1.08308      .   S
    H945   C907      1.08308      .   S
    H1701  C1638     1.08308      .   S
    H2319  C2281     1.08308      .   S
    H1481  C1443     1.08308      .   S
    Cr2259 O2295     1.89409      .   S
    Cr2259 O2296     1.89948      .   S
    Cr2259 O1661     1.93298      .   S
    Cr1161 O1197     1.89409      .   S
    Cr1161 O1198     1.89929      .   S
    Cr2096 O1067     1.89409      .   S
    Cr2096 O1068     1.89929      .   S
    Cr1616 O832      1.89409      .   S
    Cr1616 O833      1.89988      .   S
    Cr1421 O1457     1.89409      .   S
    Cr1421 O1458     1.89948      .   S
    Cr1421 O3194     1.93298      .   S
    Cr885  O921      1.89409      .   S
    Cr885  O922      1.89988      .   S
    O725   Cr3213    1.84888      .   S
    O522   Cr3207    1.84852      .   S
    O47    Cr3193    1.84892      .   S
    O3021  Cr3217    1.84888      .   S
    O2501  Cr1660    1.84892      .   S
    O2761  Cr1654    1.84852      .   S
    O1070  Cr1654    1.88832      .   S
    O1200  Cr3207    1.88832      .   S
    O1460  Cr3193    1.88869      .   S
    O835   Cr3217    1.88873      .   S
    O2298  Cr1660    1.88869      .   S
    O924   Cr3213    1.88873      .   S
    C487   C2986     1.41076      .   S
    C487   C486      1.41173      .   S
    C11    C2466     1.41076      .   S
    C11    C10       1.41158      .   S
    C2986  C2985     1.41140      .   S
    C2726  C690      1.41076      .   S
    C2726  C2725     1.41173      .   S
    C2466  C2465     1.41158      .   S
    C690   C689      1.41140      .   S
    C2268  C1170     1.40950      .   S
    C2268  C2270     1.41067      .   S
    C2105  C1430     1.40950      .   S
    C2105  C2107     1.41100      .   S
    C1430  C1432     1.41067      .   S
    C1170  C1172     1.41100      .   S
    C1625  C894      1.40950      .   S
    C1625  C1627     1.41084      .   S
    C894   C896      1.41084      .   S
    C1443  C1442     1.40693      .   S
    C2281  C2280     1.40693      .   S
    C2118  C2117     1.40693      .   S
    C1183  C1182     1.40693      .   S
    C907   C906      1.40693      .   S
    C1638  C1637     1.40693      .   S
    C3482  O96       1.26845      .   S
    C3482  O2420     1.26845      .   S
    C3492  O2940     1.26845      .   S
    C3492  O441      1.26845      .   S
    C3502  O774      1.26845      .   S
    C3502  O2680     1.26845      .   S
    O1197  C1171     1.27399      .   S
    O832   C1626     1.27399      .   S
    O2295  C2269     1.27399      .   S
    O1067  C2106     1.27399      .   S
    O921   C895      1.27399      .   S
    O1457  C1431     1.27399      .   S
    O833   C2984     1.27492      .   S
    O2296  C2464     1.27509      .   S
    O1068  C2724     1.27522      .   S
    O922   C688      1.27492      .   S
    O1458  C9        1.27509      .   S
    O1198  C485      1.27522      .   S
    C3316  C2995     1.40868      .   S
    C3316  C496      1.40922      .   S
    C3246  C20       1.40896      .   S
    C3246  C2475     1.40896      .   S
    C3346  C2735     1.40922      .   S
    C3346  C699      1.40868      .   S
    H268   C496      1.08260      .   S
    H3033  C2995     1.08260      .   S
    H2513  C2475     1.08260      .   S
    H2773  C2735     1.08260      .   S
    H737   C699      1.08260      .   S
    H59    C20       1.08260      .   S
    O774   Cr3180    1.86955      .   S
    O96    Cr3170    1.86955      .   S
    O2420  Cr3175    1.86955      .   S
    O2940  Cr3180    1.86955      .   S
    O441   Cr3175    1.86955      .   S
    O2680  Cr3170    1.86955      .   S
    O3532  Cr3185    1.92487      .   S
    O3532  Cr3189    1.92433      .   S
    Cr3181 O2062     1.86955      .   S
    Cr3181 O851      1.86955      .   S
    Cr3185 O1127     1.86955      .   S
    Cr3185 O1737     1.86955      .   S
    Cr3189 O2355     1.86955      .   S
    Cr3189 O1387     1.86955      .   S
    C20    C21       1.40693      .   S
    C2735  C2736     1.40693      .   S
    C2475  C2476     1.40693      .   S
    C699   C700      1.40693      .   S
    C2995  C2996     1.40693      .   S
    C496   C497      1.40693      .   S
    C486   C485      1.51070      .   S
    C486   C484      1.41100      .   S
    C689   C688      1.51132      .   S
    C689   C687      1.41067      .   S
    C2985  C2984     1.51132      .   S
    C2985  C2983     1.41067      .   S
    C2725  C2724     1.51070      .   S
    C2725  C2723     1.41100      .   S
    C10    C9        1.51096      .   S
    C10    C8        1.41084      .   S
    C2465  C2464     1.51096      .   S
    C2465  C2463     1.41084      .   S
    C895   C896      1.51096  1_655   S
    C895   O715      1.27509      .   S
    C1626  C1627     1.51096  1_565   S
    C1626  O3011     1.27509      .   S
    C1431  C1432     1.51132      .   S
    C1431  O37       1.27492      .   S
    C2269  C2270     1.51132      .   S
    C2269  O2491     1.27492      .   S
    C1171  C1172     1.51070  1_565   S
    C1171  O512      1.27522      .   S
    C2106  C2107     1.51070  1_655   S
    C2106  O2751     1.27522      .   S
    Cr1660 O1661     1.92102      .   S
    Cr1660 O2493     1.88873      .   S
    Cr1660 O2306     1.84888      .   S
    Cr3217 O1641     1.92102      .   S
    Cr3217 O3013     1.88869      .   S
    Cr3217 O843      1.84892      .   S
    O1655  Cr1654    1.92102      .   S
    O1655  Cr2714    1.93298      .   S
    O1641  Cr2974    1.93298      .   S
    Cr3193 O3194     1.92102      .   S
    Cr3193 O39       1.88873      .   S
    Cr3193 O1468     1.84888      .   S
    Cr3207 O3208     1.92102      .   S
    Cr3207 O514      1.88832      .   S
    Cr3207 O1208     1.84852      .   S
    O3208  Cr475     1.93298      .   S
    Cr1654 O2753     1.88832      .   S
    Cr1654 O1078     1.84852      .   S
    O3214  Cr3213    1.92102      .   S
    O3214  Cr678     1.93298      .   S
    Cr3213 O717      1.88869      .   S
    Cr3213 O932      1.84892      .   S
    C2984  O3010     1.27399      .   S
    C2464  O2490     1.27399      .   S
    C688   O714      1.27399      .   S
    C2724  O2750     1.27399      .   S
    C9     O36       1.27399      .   S
    C485   O511      1.27399      .   S
    C2107  C2108     1.41173      .   S
    C2270  C2271     1.41140      .   S
    C1432  C1433     1.41140      .   S
    C1627  C1628     1.41158      .   S
    C896   C897      1.41158      .   S
    C1172  C1173     1.41173      .   S
    C1182  H1220     1.08260      .   S
    C1182  C3416     1.40922      .   S
    C1442  H1480     1.08260      .   S
    C1442  C3456     1.40868      .   S
    C906   H944      1.08260      .   S
    C906   C3376     1.40896      .   S
    C1637  H1700     1.08260      .   S
    C1637  C3376     1.40896      .   S
    C2280  H2318     1.08260      .   S
    C2280  C3416     1.40868      .   S
    C2117  H1090     1.08260      .   S
    C2117  C3456     1.40922      .   S
    Cr3180 O3529     1.92433      .   S
    Cr3180 O776      1.87068      .   S
    Cr3180 O2942     1.87068      .   S
    Cr3175 O2422     1.87068      .   S
    Cr3175 O443      1.87068      .   S
    Cr3170 O3529     1.92487      .   S
    Cr3170 O98       1.87068      .   S
    Cr3170 O2682     1.87068      .   S
    O1127  C3512     1.26845      .   S
    O2355  C3512     1.26845      .   S
    O2062  C3520     1.26845      .   S
    O1387  C3520     1.26845      .   S
    O1737  C3504     1.26845      .   S
    O851   C3504     1.26845      .   S
    C3376  C3375     1.50353      .   S
    C3456  C3455     1.50353      .   S
    C3416  C3415     1.50353      .   S
    O512   Cr475     1.89929      .   S
    O715   Cr678     1.89948      .   S
    O3011  Cr2974    1.89948      .   S
    O37    Cr26      1.89988      .   S
    O2751  Cr2714    1.89929      .   S
    O2491  Cr2454    1.89988      .   S
    O3010  Cr2974    1.89409      .   S
    O36    Cr26      1.89409      .   S
    O2490  Cr2454    1.89409      .   S
    O714   Cr678     1.89409      .   S
    O511   Cr475     1.89409      .   S
    O2750  Cr2714    1.89409      .   S
    C3504  C3505     1.40622      .   S
    C3512  C3513     1.40622      .   S
    C3520  C3521     1.40622      .   S
    C497   H269      1.08308      .   S
    C497   C3318     1.41318      .   S
    C2736  H2774     1.08308      .   S
    C2736  C3348     1.41318      .   S
    C2996  H3034     1.08308      .   S
    C2996  C3318     1.41318      .   S
    C21    H60       1.08308      .   S
    C21    C3248     1.41318      .   S
    C2476  H2514     1.08308      .   S
    C2476  C3248     1.41318      .   S
    C700   H738      1.08308      .   S
    C700   C3348     1.41318      .   S
    C2723  C687      1.40950      .   S
    C2723  H2767     1.08272      .   S
    C484   C2983     1.40950      .   S
    C484   H528      1.08272      .   S
    C2463  C8        1.40950      .   S
    C2463  H2507     1.08286      .   S
    C8     H53       1.08286      .   S
    C2983  H3027     1.08302      .   S
    C687   H731      1.08302      .   S
    C897   C1628     1.41076      .   S
    C897   H939      1.08252      .   S
    C1628  H1695     1.08252      .   S
    C1173  C2271     1.41076      .   S
    C1173  H1215     1.08252      .   S
    C1433  C2108     1.41076      .   S
    C1433  H1475     1.08252      .   S
    C2271  H2313     1.08252      .   S
    C2108  H1085     1.08252      .   S
    O717   C692      1.27239      .   S
    O39    C13       1.27276      .   S
    O2493  C2468     1.27276      .   S
    O2753  C2728     1.27276      .   S
    O3013  C2988     1.27239      .   S
    O514   C489      1.27276      .   S
    O1208  C502      1.26278      .   S
    O2306  C2481     1.26278      .   S
    O1078  C2741     1.26278      .   S
    O1468  C27       1.26278      .   S
    O932   C705      1.26278      .   S
    O843   C3001     1.26278      .   S
    Cr2714 O2760     1.89273      .   S
    Cr2714 O2752     1.90167      .   S
    Cr2454 O2500     1.89273      .   S
    Cr2454 O2492     1.90167      .   S
    Cr26   O46       1.89273      .   S
    Cr26   O38       1.90167      .   S
    Cr678  O724      1.89273      .   S
    Cr678  O716      1.90167      .   S
    Cr475  O521      1.89273      .   S
    Cr475  O513      1.90167      .   S
    Cr2974 O3020     1.89273      .   S
    Cr2974 O3012     1.90167      .   S
    C3248  C3247     1.42548      .   S
    C3318  C3317     1.42548      .   S
    C3348  C3347     1.42548      .   S
    O2422  C3253     1.26804      .   S
    O98    C3253     1.26804      .   S
    O2682  C3353     1.26848      .   S
    O776   C3353     1.26793      .   S
    O443   C3303     1.26848      .   S
    O2942  C3303     1.26793      .   S
    H735   C697      1.08224      .   S
    H2511  C2473     1.08261      .   S
    H57    C18       1.08261      .   S
    H2771  C2733     1.08264      .   S
    H3031  C2993     1.08224      .   S
    H266   C494      1.08264      .   S
    C2481  O2500     1.27213      .   S
    C2481  C1189     1.48153      .   S
    C27    O46       1.27213      .   S
    C27    C2124     1.48153      .   S
    C705   O724      1.27271      .   S
    C705   C824      1.48129      .   S
    C3001  O3020     1.27271      .   S
    C3001  C913      1.48129      .   S
    C2741  O2760     1.27224      .   S
    C2741  C1449     1.48181      .   S
    C502   O521      1.27224      .   S
    C502   C2287     1.48181      .   S
    C692   O716      1.27495      .   S
    C692   C693      1.50873      .   S
    C2468  O2492     1.27495      .   S
    C2468  C2469     1.50873      .   S
    C489   O513      1.27495      .   S
    C489   C490      1.50873      .   S
    C13    O38       1.27495      .   S
    C13    C14       1.50873      .   S
    C2728  O2752     1.27495      .   S
    C2728  C2729     1.50873      .   S
    C2988  O3012     1.27495      .   S
    C2988  C2989     1.50873      .   S
    H1485  C1451     1.08338      .   S
    H1705  C826      1.08327      .   S
    H2323  C2289     1.08338      .   S
    H949   C915      1.08327      .   S
    H1225  C1191     1.08289      .   S
    H1095  C2126     1.08289      .   S
    C3521  C1358     1.40836      .   S
    C3521  C2033     1.40890      .   S
    C3513  C2326     1.40836      .   S
    C3513  C1098     1.40890      .   S
    C3505  C810      1.40880      .   S
    C3505  C1708     1.40880      .   S
    C3375  O927      1.27177      .   S
    C3375  O838      1.27177      .   S
    C3415  O2301     1.27123      .   S
    C3415  O1203     1.27233      .   S
    C3455  O1463     1.27123      .   S
    C3455  O1073     1.27233      .   S
    H2372  C2326     1.08350      .   S
    H1754  C1708     1.08337      .   S
    H1144  C1098     1.08295      .   S
    H2079  C2033     1.08295      .   S
    H1404  C1358     1.08350      .   S
    H868   C810      1.08337      .   S
    C3253  C3254     1.48126      .   S
    C3303  C3304     1.48055      .   S
    C3353  C3354     1.48055      .   S
    C2326  C1163     1.39567      .   S
    C810   C1618     1.39567      .   S
    C1358  C2098     1.39567      .   S
    C2033  C1423     1.39567      .   S
    C1098  C2261     1.39567      .   S
    C1708  C887      1.39567      .   S
    C1451  C1449     1.40860      .   S
    C1451  C1450     1.39027      .   S
    C2126  C2124     1.40878      .   S
    C2126  C2125     1.39027      .   S
    C915   C913      1.40817      .   S
    C915   C914      1.39027      .   S
    C826   C824      1.40817      .   S
    C826   C825      1.39027      .   S
    C1191  C1189     1.40878      .   S
    C1191  C1190     1.39027      .   S
    C2289  C2287     1.40860      .   S
    C2289  C2288     1.39027      .   S
    C18    C14       1.41033      .   S
    C18    C19       1.40647      .   S
    C697   C693      1.41033      .   S
    C697   C698      1.40647      .   S
    C2473  C2469     1.41033      .   S
    C2473  C2474     1.40647      .   S
    C494   C490      1.41033      .   S
    C494   C495      1.40647      .   S
    C2993  C2989     1.41033      .   S
    C2993  C2994     1.40647      .   S
    C2733  C2729     1.41033      .   S
    C2733  C2734     1.40647      .   S
    C1449  C1447     1.40426      .   S
    C913   C911      1.40426      .   S
    C2287  C2285     1.40426      .   S
    C824   C822      1.40426      .   S
    C1189  C1187     1.40426      .   S
    C2124  C2122     1.40426      .   S
    O2301  Cr2260    1.88990      .   S
    O1203  Cr1162    1.88990      .   S
    O927   Cr886     1.88990      .   S
    O1463  Cr1422    1.88990      .   S
    O838   Cr1617    1.88990      .   S
    O1073  Cr2097    1.88990      .   S
    C2989  C2987     1.41150      .   S
    C14    C12       1.41116      .   S
    C693   C691      1.41150      .   S
    C2469  C2467     1.41116      .   S
    C490   C488      1.41110      .   S
    C2729  C2727     1.41110      .   S
    C3317  O518      1.27301      .   S
    C3317  O3017     1.27301      .   S
    C3247  O2497     1.27301      .   S
    C3247  O43       1.27301      .   S
    C3347  O721      1.27301      .   S
    C3347  O2757     1.27301      .   S
    H948   C914      1.08353      .   S
    H1484  C1450     1.08312      .   S
    H1094  C2125     1.08292      .   S
    H1704  C825      1.08353      .   S
    H1224  C1190     1.08292      .   S
    H2322  C2288     1.08312      .   S
    H2512  C2474     1.08289      .   S
    H3032  C2994     1.08230      .   S
    H267   C495      1.08243      .   S
    H58    C19       1.08289      .   S
    H2772  C2734     1.08243      .   S
    H736   C698      1.08230      .   S
    C1190  C1186     1.40111      .   S
    C2288  C2284     1.40062      .   S
    C825   C821      1.40076      .   S
    C2125  C2121     1.40111      .   S
    C914   C910      1.40076      .   S
    C1450  C1446     1.40062      .   S
    C3354  C747      1.40611      .   S
    C3354  C2653     1.40557      .   S
    C3254  C2393     1.40567      .   S
    C3254  C69       1.40567      .   S
    C3304  C408      1.40557      .   S
    C3304  C2913     1.40611      .   S
    H793   C747      1.08338      .   S
    H2439  C2393     1.08338      .   S
    H460   C408      1.08338      .   S
    H2959  C2913     1.08338      .   S
    H2699  C2653     1.08338      .   S
    H118   C69       1.08338      .   S
    C698   C696      1.41009      .   S
    C2994  C2992     1.41009      .   S
    C2474  C2472     1.41009      .   S
    C2734  C2732     1.41009      .   S
    C495   C493      1.41009      .   S
    C19    C17       1.41009      .   S
    C1447  H1483     1.08314      .   S
    C1447  C1444     1.40238      .   S
    C1187  H1223     1.08334      .   S
    C1187  C1184     1.40238      .   S
    C822   H1703     1.08273      .   S
    C822   C1639     1.40238      .   S
    C2122  H1093     1.08334      .   S
    C2122  C2119     1.40238      .   S
    C911   H947      1.08273      .   S
    C911   C908      1.40238      .   S
    C2285  H2321     1.08314      .   S
    C2285  C2282     1.40238      .   S
    O518   Cr3223    1.89044      .   S
    O721   Cr3226    1.89044      .   S
    O3017  Cr3222    1.89044      .   S
    O2497  Cr1689    1.89044      .   S
    O43    Cr1688    1.89044      .   S
    O2757  Cr3227    1.89044      .   S
    C1423  H1469     1.08295      .   S
    C1423  C3523     1.40890      .   S
    C1163  H1209     1.08350      .   S
    C1163  C3515     1.40836      .   S
    C2261  H2307     1.08295      .   S
    C2261  C3515     1.40890      .   S
    C887   H933      1.08308      .   S
    C887   C3507     1.40848      .   S
    C2098  H1079     1.08350      .   S
    C2098  C3523     1.40836      .   S
    C1618  H844      1.08308      .   S
    C1618  C3507     1.40848      .   S
    C691   H733      1.08234      .   S
    C691   C694      1.41201      .   S
    C2987  H3029     1.08234      .   S
    C2987  C2990     1.41201      .   S
    C2727  H2769     1.08234      .   S
    C2727  C2730     1.41201      .   S
    C12    H55       1.08234      .   S
    C12    C15       1.41201      .   S
    C2467  H2509     1.08234      .   S
    C2467  C2470     1.41201      .   S
    C488   H530      1.08234      .   S
    C488   C491      1.41201      .   S
    C408   C407      1.39584      .   S
    C747   C746      1.39584      .   S
    C2393  C2392     1.39584      .   S
    C2913  C2912     1.39584      .   S
    C2653  C2652     1.39584      .   S
    C69    C68       1.39584      .   S
    C910   C908      1.41016      .   S
    C910   C909      1.47969  1_455   S
    C1446  C1444     1.41016      .   S
    C1446  C1445     1.47969      .   S
    C1186  C1184     1.41016      .   S
    C1186  C1185     1.47969  1_545   S
    C2121  C2119     1.41016      .   S
    C2121  C2120     1.47969  1_455   S
    C2284  C2282     1.41016      .   S
    C2284  C2283     1.47969      .   S
    C821   C1639     1.41016      .   S
    C821   C1640     1.47969  1_545   S
    O1206  Cr1162    1.87184      .   S
    O1206  C2283     1.27038      .   S
    O841   Cr1617    1.87307      .   S
    O841   C909      1.26993      .   S
    O1076  Cr2097    1.87184      .   S
    O1076  C1445     1.27038      .   S
    O930   Cr886     1.87307      .   S
    O930   C1640     1.26993      .   S
    O1466  Cr1422    1.87232      .   S
    O1466  C2120     1.27049      .   S
    O2304  Cr2260    1.87232      .   S
    O2304  C1185     1.27049      .   S
    C1639  H1702     1.08317  1_545   S
    C2282  H2320     1.08330      .   S
    C2119  H1092     1.08281  1_455   S
    C1444  H1482     1.08330      .   S
    C908   H946      1.08317  1_455   S
    C1184  H1222     1.08281  1_545   S
    C3515  C3514     1.40622      .   S
    C3507  C3506     1.40622      .   S
    C3523  C3522     1.40622      .   S
    C2732  C2730     1.41150      .   S
    C2732  C2731     1.50834      .   S
    C2992  C2990     1.41161      .   S
    C2992  C2991     1.50834      .   S
    C2472  C2470     1.41102      .   S
    C2472  C2471     1.50834      .   S
    C17    C15       1.41102      .   S
    C17    C16       1.50834      .   S
    C493   C491      1.41150      .   S
    C493   C492      1.50834      .   S
    C696   C694      1.41161      .   S
    C696   C695      1.50834      .   S
    Cr2260 O2291     1.87187      .   S
    Cr2260 O3419     1.92498      .   S
    Cr2260 O2293     1.88729      .   S
    Cr2097 O2128     1.87206      .   S
    Cr2097 O3459     1.92607      .   S
    Cr2097 O1065     1.88703      .   S
    Cr1422 O1453     1.87187      .   S
    Cr1422 O3459     1.92498      .   S
    Cr1422 O1455     1.88729      .   S
    Cr1162 O1193     1.87206      .   S
    Cr1162 O3419     1.92607      .   S
    Cr1162 O1195     1.88703      .   S
    Cr1617 O828      1.87145      .   S
    Cr1617 O3379     1.92593      .   S
    Cr1617 O830      1.88714      .   S
    Cr886  O917      1.87145      .   S
    Cr886  O3379     1.92593      .   S
    Cr886  O919      1.88714      .   S
    C2990  H3030     1.08218      .   S
    C15    H56       1.08292      .   S
    C694   H734      1.08218      .   S
    C2470  H2510     1.08292      .   S
    C2730  H2770     1.08299      .   S
    C491   H531      1.08299      .   S
    C909   O929      1.26639      .   S
    C1445  O1465     1.26629      .   S
    C1185  O1205     1.26672      .   S
    C1640  O840      1.26639      .   S
    C2283  O2303     1.26629      .   S
    C2120  O1075     1.26672      .   S
    O828   C3371     1.26899      .   S
    O917   C3371     1.26899      .   S
    O2291  C3411     1.26899      .   S
    O2128  C3451     1.26899      .   S
    O1193  C3411     1.26899      .   S
    O1453  C3451     1.26899      .   S
    C68    H117      1.08306      .   S
    C68    C3252     1.40603      .   S
    C2652  H2698     1.08294      .   S
    C2652  C3352     1.40603      .   S
    C407   H459      1.08294      .   S
    C407   C3302     1.40603      .   S
    C746   H792      1.08349      .   S
    C746   C3352     1.40603      .   S
    C2392  H2438     1.08306      .   S
    C2392  C3252     1.40603      .   S
    C2912  H2958     1.08349      .   S
    C2912  C3302     1.40603      .   S
    C3451  C3452     1.48115      .   S
    C3411  C3412     1.48115      .   S
    C3371  C3372     1.48115      .   S
    O2495  C2471     1.27227      .   S
    O2495  Cr1689    1.88967      .   S
    O516   C492      1.27273      .   S
    O516   Cr3223    1.88907      .   S
    O41    C16       1.27227      .   S
    O41    Cr1688    1.88967      .   S
    O2755  C2731     1.27273      .   S
    O2755  Cr3227    1.88907      .   S
    O3015  C2991     1.27285      .   S
    O3015  Cr3222    1.88931      .   S
    O719   C695      1.27285      .   S
    O719   Cr3226    1.88931      .   S
    C2991  O3014     1.27469      .   S
    C492   O515      1.27469      .   S
    C16    O40       1.27469      .   S
    C2731  O2754     1.27469      .   S
    C695   O718      1.27469      .   S
    C2471  O2494     1.27469      .   S
    C3452  C2099     1.40603      .   S
    C3452  C1424     1.40603      .   S
    C3412  C2262     1.40603      .   S
    C3412  C1164     1.40603      .   S
    C3372  C1619     1.40603      .   S
    C3372  C888      1.40603      .   S
    H1210  C1164     1.08349      .   S
    H1470  C1424     1.08294      .   S
    H1080  C2099     1.08349      .   S
    H1690  C1619     1.08296      .   S
    H2308  C2262     1.08294      .   S
    H934   C888      1.08296      .   S
    C2099  C2100     1.39584      .   S
    C1619  C1620     1.39584      .   S
    C1424  C1425     1.39584      .   S
    C2262  C2263     1.39584      .   S
    C1164  C1165     1.39584      .   S
    C888   C889      1.39584      .   S
    Cr3226 O2692     1.89044      .   S
    Cr3226 O1675     1.92625      .   S
    Cr3226 O2690     1.88931      .   S
    Cr1689 O111      1.89044      .   S
    Cr1689 O1665     1.92625      .   S
    Cr1689 O109      1.88921      .   S
    Cr3227 O786      1.89044      .   S
    Cr3227 O1675     1.92625      .   S
    Cr3227 O784      1.88907      .   S
    Cr3222 O453      1.89044      .   S
    Cr3222 O1671     1.92625      .   S
    Cr3222 O451      1.88931      .   S
    Cr1688 O2432     1.89044      .   S
    Cr1688 O1665     1.92625      .   S
    Cr1688 O2430     1.88921      .   S
    Cr3223 O2952     1.89044      .   S
    Cr3223 O1671     1.92625      .   S
    Cr3223 O2950     1.88907      .   S
    C3506  O916      1.26845      .   S
    C3506  O827      1.26845      .   S
    C3514  O1192     1.26845      .   S
    C3514  O2290     1.26845      .   S
    C3522  O1452     1.26845      .   S
    C3522  O2127     1.26845      .   S
    C3252  C3251     1.48115      .   S
    C3352  C3351     1.48115      .   S
    C3302  C3301     1.48115      .   S
    O929   Cr3370    1.86988      .   S
    O1075  Cr3450    1.87002      .   S
    O1465  Cr3450    1.87089      .   S
    O840   Cr3370    1.86988      .   S
    O2303  Cr3410    1.87089      .   S
    O1205  Cr3410    1.87002      .   S
    C1425  H1471     1.08338      .   S
    C1425  C3454     1.40557      .   S
    C2263  H2309     1.08338      .   S
    C2263  C3414     1.40557      .   S
    C1165  H1211     1.08338      .   S
    C1165  C3414     1.40611      .   S
    C2100  H1081     1.08338      .   S
    C2100  C3454     1.40611      .   S
    C1620  H1691     1.08338      .   S
    C1620  C3374     1.40558      .   S
    C889   H935      1.08338      .   S
    C889   C3374     1.40558      .   S
    O111   C3257     1.27301      .   S
    O2432  C3257     1.27301      .   S
    O2952  C3307     1.27301      .   S
    O2692  C3357     1.27301      .   S
    O786   C3357     1.27301      .   S
    O453   C3307     1.27301      .   S
    O1452  Cr3190    1.86955      .   S
    O2127  Cr3183    1.86955      .   S
    O1192  Cr3186    1.86955      .   S
    O916   Cr3182    1.86955      .   S
    O2290  Cr3191    1.86955      .   S
    O827   Cr3187    1.86955      .   S
    O40    Cr1664    1.89821      .   S
    O3014  Cr1670    1.89821      .   S
    O2494  Cr1664    1.89821      .   S
    O515   Cr1670    1.89821      .   S
    O2754  Cr1674    1.89821      .   S
    O718   Cr1674    1.89821      .   S
    C3257  C3258     1.42548      .   S
    C3357  C3358     1.42548      .   S
    C3307  C3308     1.42548      .   S
    C3374  C3373     1.48157      .   S
    C3454  C3453     1.48055      .   S
    C3414  C3413     1.48055      .   S
    O1455  C1427     1.27072      .   S
    O830   C1622     1.27101      .   S
    O2293  C2265     1.27072      .   S
    O1195  C1167     1.27083      .   S
    O919   C891      1.27101      .   S
    O1065  C2102     1.27083      .   S
    Cr3450 O1456     1.87206      .   S
    Cr3450 O1066     1.87163      .   S
    Cr3410 O2294     1.87206      .   S
    Cr3410 O1196     1.87163      .   S
    Cr3370 O831      1.87208      .   S
    Cr3370 O920      1.87208      .   S
    C3308  C2931     1.41318      .   S
    C3308  C432      1.41318      .   S
    C3258  C2411     1.41318      .   S
    C3258  C87       1.41318      .   S
    C3358  C2671     1.41318      .   S
    C3358  C765      1.41318      .   S
    H2709  C2671     1.08308      .   S
    H470   C432      1.08308      .   S
    H803   C765      1.08308      .   S
    H2449  C2411     1.08308      .   S
    H128   C87       1.08308      .   S
    H2969  C2931     1.08308      .   S
    C3413  O2292     1.26848      .   S
    C3413  O1194     1.26793      .   S
    C3453  O1064     1.26793      .   S
    C3453  O1454     1.26848      .   S
    C3373  O829      1.26797      .   S
    C3373  O918      1.26797      .   S
    C3351  O775      1.26899      .   S
    C3351  O2681     1.26899      .   S
    C3251  O2421     1.26899      .   S
    C3251  O97       1.26899      .   S
    C3301  O2941     1.26899      .   S
    C3301  O442      1.26899      .   S
    C2671  C2670     1.40693      .   S
    C2411  C2410     1.40693      .   S
    C765   C764      1.40693      .   S
    C2931  C2930     1.40693      .   S
    C432   C431      1.40693      .   S
    C87    C86       1.40693      .   S
    O2292  Cr3191    1.87068      .   S
    O1064  Cr3183    1.87068      .   S
    O829   Cr3187    1.87068      .   S
    O1194  Cr3186    1.87068      .   S
    O918   Cr3182    1.87068      .   S
    O1454  Cr3190    1.87068      .   S
    Cr1670 O450      1.89821      .   S
    Cr1670 O2949     1.89821      .   S
    Cr1674 O783      1.89821      .   S
    Cr1674 O2689     1.89821      .   S
    Cr1664 O2429     1.89821      .   S
    Cr1664 O108      1.89821      .   S
    O784   C760      1.27273      .   S
    O451   C427      1.27285      .   S
    O2690  C2666     1.27285      .   S
    O2950  C2926     1.27273      .   S
    O2430  C2406     1.27252      .   S
    O109   C82       1.27252      .   S
    C2930  H2968     1.08260      .   S
    C2930  C3306     1.40922      .   S
    C764   H802      1.08260      .   S
    C764   C3356     1.40922      .   S
    C2410  H2448     1.08260      .   S
    C2410  C3256     1.40869      .   S
    C2670  H2708     1.08260      .   S
    C2670  C3356     1.40868      .   S
    C431   H469      1.08260      .   S
    C431   C3306     1.40868      .   S
    C86    H127      1.08260      .   S
    C86    C3256     1.40869      .   S
    O2421  Cr2390    1.87172      .   S
    O97    Cr66      1.87172      .   S
    O775   Cr744     1.87206      .   S
    O2681  Cr2650    1.87187      .   S
    O2941  Cr2910    1.87206      .   S
    O442   Cr405     1.87187      .   S
    H1274  C1228     1.08308      .   S
    H1884  C1838     1.08350      .   S
    H2242  C2196     1.08337      .   S
    H1534  C1488     1.08337      .   S
    H1949  C1903     1.08308      .   S
    H998   C952      1.08350      .   S
    C2102  O1456     1.26792      .   S
    C2102  C2103     1.49198      .   S
    C1167  O2294     1.26792      .   S
    C1167  C1168     1.49198      .   S
    C2265  O1196     1.26837      .   S
    C2265  C2266     1.49130      .   S
    C891   O831      1.26777      .   S
    C891   C892      1.49193      .   S
    C1622  O920      1.26777      .   S
    C1622  C1623     1.49193      .   S
    C1427  O1066     1.26837      .   S
    C1427  C1428     1.49130      .   S
    C3306  C3305     1.50353      .   S
    C3256  C3255     1.50353      .   S
    C3356  C3355     1.50353      .   S
    Cr3191 O1517     1.86955      .   S
    Cr3191 O1519     1.87068      .   S
    Cr3182 O1932     1.86955      .   S
    Cr3182 O3533     1.92469      .   S
    Cr3182 O1934     1.87068      .   S
    Cr3183 O981      1.86955      .   S
    Cr3183 O3534     1.92433      .   S
    Cr3183 O983      1.87068      .   S
    Cr3186 O1867     1.86955      .   S
    Cr3186 O3535     1.92433      .   S
    Cr3186 O1869     1.87068      .   S
    Cr3187 O1257     1.86955      .   S
    Cr3187 O1259     1.87068      .   S
    Cr3190 O2225     1.86955      .   S
    Cr3190 O3534     1.92487      .   S
    Cr3190 O2227     1.87068      .   S
    H1473  C1429     1.08261      .   S
    H1213  C1169     1.08261      .   S
    H937   C893      1.08261      .   S
    H1693  C1624     1.08261      .   S
    H2311  C2267     1.08261      .   S
    H1083  C2104     1.08261      .   S
    C3355  O785      1.27233      .   S
    C3355  O2691     1.27123      .   S
    C3305  O2951     1.27233      .   S
    C3305  O452      1.27123      .   S
    C3255  O110      1.27227      .   S
    C3255  O2431     1.27227      .   S
    O2225  C3518     1.26845      .   S
    O1517  C3524     1.26845      .   S
    O1257  C3516     1.26845      .   S
    O1867  C3510     1.26845      .   S
    O1932  C3526     1.26845      .   S
    O981   C3508     1.26845      .   S
    C1903  C1488     1.39567      .   S
    C1903  C3527     1.40848      .   S
    C1488  C3525     1.40880      .   S
    C2196  C1228     1.39567      .   S
    C2196  C3519     1.40880      .   S
    C1838  C952      1.39567      .   S
    C1838  C3511     1.40836      .   S
    C1228  C3517     1.40848      .   S
    C952   C3509     1.40836      .   S
    O785   Cr744     1.88990      .   S
    O2951  Cr2910    1.88990      .   S
    O2691  Cr2650    1.88990      .   S
    O452   Cr405     1.88990      .   S
    O110   Cr66      1.88990      .   S
    O2431  Cr2390    1.88990      .   S
    C2666  O2689     1.27469      .   S
    C2666  C2667     1.50834      .   S
    C82    O108      1.27469      .   S
    C82    C83       1.50834      .   S
    C427   O450      1.27469      .   S
    C427   C428      1.50834      .   S
    C2406  O2429     1.27469      .   S
    C2406  C2407     1.50834      .   S
    C2926  O2949     1.27469      .   S
    C2926  C2927     1.50834      .   S
    C760   O783      1.27469      .   S
    C760   C761      1.50834      .   S
    O3535  Cr3184    1.92487      .   S
    O3533  Cr3192    1.92469      .   S
    H2441  C2397     1.08261      .   S
    H120   C73       1.08261      .   S
    H2961  C2917     1.08261      .   S
    H2701  C2657     1.08261      .   S
    H795   C751      1.08261      .   S
    H462   C207      1.08261      .   S
    C2104  C2103     1.40840      .   S
    C2104  C958      1.40510      .   S
    C893   C892      1.40821      .   S
    C893   C1909     1.40510      .   S
    C1624  C1623     1.40821      .   S
    C1624  C1234     1.40510      .   S
    C1429  C1428     1.40882      .   S
    C1429  C2202     1.40510      .   S
    C2267  C2266     1.40882      .   S
    C2267  C1494     1.40510      .   S
    C1169  C1168     1.40840      .   S
    C1169  C1844     1.40510      .   S
    C1168  C1166     1.40707      .   S
    C2103  C2101     1.40707      .   S
    C1428  C1426     1.40697      .   S
    C2266  C2264     1.40697      .   S
    C1623  C1621     1.40726      .   S
    C892   C890      1.40726      .   S
    H2707  C2669     1.08230      .   S
    H2967  C2929     1.08243      .   S
    H801   C763      1.08243      .   S
    H468   C430      1.08230      .   S
    H2447  C2409     1.08263      .   S
    H126   C85       1.08263      .   S
    Cr744  O777      1.88703      .   S
    Cr744  O3359     1.92607      .   S
    Cr744  O788      1.87184      .   S
    Cr2390 O2423     1.88668      .   S
    Cr2390 O3259     1.92532      .   S
    Cr2390 O2434     1.87258      .   S
    Cr2650 O2683     1.88729      .   S
    Cr2650 O3359     1.92498      .   S
    Cr2650 O2694     1.87232      .   S
    Cr2910 O2943     1.88703      .   S
    Cr2910 O3309     1.92607      .   S
    Cr2910 O2954     1.87184      .   S
    Cr405  O444      1.88729      .   S
    Cr405  O3309     1.92498      .   S
    Cr405  O455      1.87232      .   S
    Cr66   O99       1.88668      .   S
    Cr66   O3259     1.92532      .   S
    Cr66   O113      1.87258      .   S
    O1869  C3393     1.26793      .   S
    O1934  C3473     1.26797      .   S
    O1259  C3423     1.26797      .   S
    O2227  C3433     1.26804      .   S
    O1519  C3463     1.26804      .   S
    O983   C3383     1.26793      .   S
    C3518  C3519     1.40622      .   S
    C3518  O1322     1.26845      .   S
    C3508  C3509     1.40622      .   S
    C3508  O1802     1.26845      .   S
    C3516  C3517     1.40622      .   S
    C3516  O2160     1.26845      .   S
    C3524  C3525     1.40622      .   S
    C3524  O1997     1.26845      .   S
    C3510  C3511     1.40622      .   S
    C3510  O1046     1.26845      .   S
    C3526  C3527     1.40622      .   S
    C3526  O1582     1.26845      .   S
    C3519  C1293     1.40880      .   S
    C3509  C1773     1.40890      .   S
    C3511  C1017     1.40890      .   S
    C3527  C1553     1.40848      .   S
    C3525  C1968     1.40880      .   S
    C3517  C2131     1.40848      .   S
    C2917  C751      1.40510      .   S
    C2917  C2916     1.40840      .   S
    C73    C2657     1.40510      .   S
    C73    C72       1.40850      .   S
    C751   C750      1.40840      .   S
    C207   C2397     1.40510      .   S
    C207   C206      1.40882      .   S
    C2657  C2656     1.40882      .   S
    C2397  C2396     1.40850      .   S
    O777   C749      1.27083      .   S
    O2943  C2915     1.27083      .   S
    O99    C71       1.27040      .   S
    O2423  C2395     1.27040      .   S
    O2683  C2655     1.27072      .   S
    O444   C410      1.27072      .   S
    H1536  C1490     1.08338      .   S
    H1886  C1840     1.08338      .   S
    H1276  C1230     1.08338      .   S
    H1951  C1905     1.08338      .   S
    H1000  C954      1.08338      .   S
    H2244  C2198     1.08338      .   S
    C2669  C2667     1.41009      .   S
    C2669  C2668     1.40647      .   S
    C85    C83       1.41009      .   S
    C85    C84       1.40647      .   S
    C763   C761      1.41009      .   S
    C763   C762      1.40647      .   S
    C430   C428      1.41009      .   S
    C430   C429      1.40647      .   S
    C2929  C2927     1.41009      .   S
    C2929  C2928     1.40647      .   S
    C2409  C2407     1.41009      .   S
    C2409  C2408     1.40647      .   S
    C83    C81       1.41131      .   S
    C2667  C2665     1.41161      .   S
    C2407  C2405     1.41131      .   S
    C761   C759      1.41150      .   S
    C428   C426      1.41161      .   S
    C2927  C2925     1.41150      .   S
    H1278  C1234     1.08261      .   S
    H1538  C1494     1.08261      .   S
    H2246  C2202     1.08261      .   S
    H1953  C1909     1.08261      .   S
    H1002  C958      1.08261      .   S
    H1888  C1844     1.08261      .   S
    C1844  C1843     1.40840      .   S
    C1494  C1493     1.40850      .   S
    C958   C957      1.40840      .   S
    C1234  C1233     1.40821      .   S
    C1909  C1908     1.40821      .   S
    C2202  C2201     1.40850      .   S
    C890   H936      1.08257      .   S
    C890   C1906     1.39819      .   S
    C2264  H2310     1.08257      .   S
    C2264  C1491     1.39819      .   S
    C1621  H1692     1.08257      .   S
    C1621  C1231     1.39819      .   S
    C2101  H1082     1.08257      .   S
    C2101  C955      1.39819      .   S
    C1166  H1212     1.08257      .   S
    C1166  C1841     1.39819      .   S
    C1426  H1472     1.08257      .   S
    C1426  C2199     1.39819      .   S
    O1322  Cr3188    1.86955      .   S
    O1997  Cr3184    1.86955      .   S
    O2160  Cr3192    1.86955      .   S
    O1802  Cr3188    1.86955      .   S
    O1046  Cr3184    1.86955      .   S
    O1582  Cr3192    1.86955      .   S
    C1293  C2131     1.39567      .   S
    C1293  H1339     1.08337      .   S
    C2131  H2177     1.08308      .   S
    C1968  C1553     1.39567      .   S
    C1968  H2014     1.08337      .   S
    C1553  H1599     1.08308      .   S
    C1017  C1773     1.39567      .   S
    C1017  H1063     1.08295      .   S
    C1773  H1819     1.08295      .   S
    C2655  C2656     1.49130      .   S
    C2655  O778      1.26837      .   S
    C2395  C2396     1.49256      .   S
    C2395  O103      1.26808      .   S
    C749   C750      1.49198      .   S
    C749   O2684     1.26792      .   S
    C410   C206      1.49130      .   S
    C410   O2944     1.26837      .   S
    C71    C72       1.49256      .   S
    C71    O2424     1.26808      .   S
    C2915  C2916     1.49198      .   S
    C2915  O445      1.26792      .   S
    C3383  O1804     1.26848      .   S
    C3383  C3384     1.48055      .   S
    C3433  O1324     1.26804      .   S
    C3433  C3434     1.48126      .   S
    C3423  O2162     1.26797      .   S
    C3423  C3424     1.48157      .   S
    C3393  O1048     1.26848      .   S
    C3393  C3394     1.48055      .   S
    C3463  O1999     1.26804      .   S
    C3463  C3464     1.48126      .   S
    C3473  O1584     1.26797      .   S
    C3473  C3474     1.48157      .   S
    C72    C70       1.40665      .   S
    C206   C409      1.40697      .   S
    C750   C748      1.40707      .   S
    C2916  C2914     1.40707      .   S
    C2656  C2654     1.40697      .   S
    C2396  C2394     1.40665      .   S
    Cr3188 O1804     1.87068      .   S
    Cr3188 O1324     1.87068      .   S
    Cr3192 O1584     1.87068      .   S
    Cr3192 O2162     1.87068      .   S
    Cr3184 O1999     1.87068      .   S
    Cr3184 O1048     1.87068      .   S
    O113   C2413     1.27044      .   S
    O455   C2933     1.27049      .   S
    O2434  C89       1.27044      .   S
    O788   C2673     1.27038      .   S
    O2954  C434      1.27038      .   S
    O2694  C767      1.27049      .   S
    C1840  C3394     1.40611      .   S
    C1840  C1839     1.39584      .   S
    C2198  C3434     1.40567      .   S
    C2198  C2197     1.39584      .   S
    C1230  C3424     1.40558      .   S
    C1230  C1229     1.39584      .   S
    C1905  C3474     1.40558      .   S
    C1905  C1904     1.39584      .   S
    C1490  C3464     1.40567      .   S
    C1490  C1489     1.39584      .   S
    C954   C3384     1.40611      .   S
    C954   C953      1.39584      .   S
    H800   C762      1.08264      .   S
    H2966  C2928     1.08264      .   S
    H125   C84       1.08286      .   S
    H2706  C2668     1.08224      .   S
    H2446  C2408     1.08286      .   S
    H467   C429      1.08224      .   S
    C429   C425      1.41033      .   S
    C2668  C2664     1.41033      .   S
    C84    C80       1.41033      .   S
    C762   C758      1.41033      .   S
    C2408  C2404     1.41033      .   S
    C2928  C2924     1.41033      .   S
    H1885  C1839     1.08349      .   S
    H1275  C1229     1.08296      .   S
    H2243  C2197     1.08306      .   S
    H999   C953      1.08349      .   S
    H1535  C1489     1.08306      .   S
    H1950  C1904     1.08296      .   S
    C2925  H2965     1.08299      .   S
    C2925  C2922     1.41201      .   S
    C759   H799      1.08299      .   S
    C759   C756      1.41201      .   S
    C2405  H2445     1.08341      .   S
    C2405  C2402     1.41201      .   S
    C426   H466      1.08218      .   S
    C426   C423      1.41201      .   S
    C81    H124      1.08341      .   S
    C81    C78       1.41201      .   S
    C2665  H2705     1.08218      .   S
    C2665  C2662     1.41201      .   S
    C2201  C2199     1.40665      .   S
    C2201  C2200     1.49256      .   S
    C1843  C1841     1.40707      .   S
    C1843  C1842     1.49198      .   S
    C1233  C1231     1.40726      .   S
    C1233  C1232     1.49193      .   S
    C957   C955      1.40707      .   S
    C957   C956      1.49198      .   S
    C1908  C1906     1.40726      .   S
    C1908  C1907     1.49193      .   S
    C1493  C1491     1.40665      .   S
    C1493  C1492     1.49256      .   S
    H806   C772      1.08292      .   S
    H2972  C2938     1.08292      .   S
    H2712  C2678     1.08312      .   S
    H2452  C2418     1.08312      .   S
    H135   C94       1.08312      .   S
    H473   C439      1.08312      .   S
    C1491  H1537     1.08257      .   S
    C1906  H1952     1.08257      .   S
    C2199  H2245     1.08257      .   S
    C1841  H1887     1.08257      .   S
    C1231  H1277     1.08257      .   S
    C955   H1001     1.08257      .   S
    C3424  C2133     1.40558      .   S
    C3434  C1295     1.40567      .   S
    C3474  C1555     1.40558      .   S
    C3464  C1970     1.40567      .   S
    C3384  C1775     1.40557      .   S
    C3394  C1019     1.40557      .   S
    O2424  Cr3250    1.87222      .   S
    O103   Cr3250    1.87222      .   S
    O2684  Cr3350    1.87206      .   S
    O445   Cr3300    1.87206      .   S
    O2944  Cr3300    1.87163      .   S
    O778   Cr3350    1.87163      .   S
    C1489  C3462     1.40603      .   S
    C1839  C3392     1.40603      .   S
    C1229  C3422     1.40603      .   S
    C953   C3382     1.40603      .   S
    C2197  C3432     1.40603      .   S
    C1904  C3472     1.40603      .   S
    C409   C2394     1.39819      .   S
    C409   H461      1.08257      .   S
    C748   C2914     1.39819      .   S
    C748   H794      1.08257      .   S
    C2394  H2440     1.08257      .   S
    C70    C2654     1.39819      .   S
    C70    H119      1.08257      .   S
    C2914  H2960     1.08257      .   S
    C2654  H2700     1.08257      .   S
    Cr3250 O2433     1.86975      .   S
    Cr3250 O112      1.86975      .   S
    Cr3350 O787      1.87002      .   S
    Cr3350 O2693     1.87089      .   S
    Cr3300 O454      1.87089      .   S
    Cr3300 O2953     1.87002      .   S
    C434   O454      1.26629      .   S
    C434   C435      1.47969      .   S
    C2413  O2433     1.26682      .   S
    C2413  C2414     1.47969      .   S
    C2673  O2693     1.26629      .   S
    C2673  C2674     1.47969      .   S
    C767   O787      1.26672      .   S
    C767   C768      1.47969      .   S
    C89    O112      1.26682      .   S
    C89    C90       1.47969      .   S
    C2933  O2953     1.26672      .   S
    C2933  C2934     1.47969      .   S
    C2938  C2934     1.40111      .   S
    C2938  C2939     1.39027      .   S
    C2418  C2414     1.40113      .   S
    C2418  C2419     1.39027      .   S
    C94    C90       1.40113      .   S
    C94    C95       1.39027      .   S
    C2678  C2674     1.40062      .   S
    C2678  C2679     1.39027      .   S
    C439   C435      1.40062      .   S
    C439   C440      1.39027      .   S
    C772   C768      1.40111      .   S
    C772   C773      1.39027      .   S
    C425   C423      1.41150      .   S
    C425   C424      1.50873      .   S
    C2924  C2922     1.41110      .   S
    C2924  C2923     1.50873      .   S
    C758   C756      1.41110      .   S
    C758   C757      1.50873      .   S
    C2404  C2402     1.41088      .   S
    C2404  C2403     1.50873      .   S
    C2664  C2662     1.41150      .   S
    C2664  C2663     1.50873      .   S
    C80    C78       1.41088      .   S
    C80    C79       1.50873      .   S
    C2402  H2444     1.08234      .   S
    C78    H123      1.08234      .   S
    C2922  H2964     1.08234      .   S
    C756   H798      1.08234      .   S
    C423   H465      1.08234      .   S
    C2662  H2704     1.08234      .   S
    O984   C956      1.27083      .   S
    O984   Cr951     1.88703      .   S
    O1870  C1842     1.27083      .   S
    O1870  Cr1837    1.88703      .   S
    O1935  C1907     1.27101      .   S
    O1935  Cr1902    1.88714      .   S
    O2228  C2200     1.27040      .   S
    O2228  Cr2195    1.88668      .   S
    O1260  C1232     1.27101      .   S
    O1260  Cr1227    1.88714      .   S
    O1520  C1492     1.27040      .   S
    O1520  Cr1487    1.88668      .   S
    C2200  O1326     1.26808      .   S
    C1907  O1586     1.26777      .   S
    C1232  O2164     1.26777      .   S
    C1842  O1050     1.26792      .   S
    C956   O1806     1.26792      .   S
    C1492  O2001     1.26808      .   S
    H807   C773      1.08289      .   S
    H474   C440      1.08338      .   S
    H2713  C2679     1.08338      .   S
    H136   C95       1.08287      .   S
    H2973  C2939     1.08289      .   S
    H2453  C2419     1.08287      .   S
    C768   C766      1.41016      .   S
    C435   C433      1.41016      .   S
    C2934  C2932     1.41016      .   S
    C90    C88       1.41016      .   S
    C2414  C2412     1.41016      .   S
    C2674  C2672     1.41016      .   S
    C1019  H533      1.08338      .   S
    C1019  C1018     1.39584      .   S
    C1295  H1341     1.08338      .   S
    C1295  C1294     1.39584      .   S
    C1555  H1601     1.08338      .   S
    C1555  C1554     1.39584      .   S
    C1970  H2016     1.08338      .   S
    C1970  C1969     1.39584      .   S
    C2133  H2179     1.08338      .   S
    C2133  C2132     1.39584      .   S
    C1775  H1821     1.08338      .   S
    C1775  C1774     1.39584      .   S
    C3382  C1774     1.40603      .   S
    C3382  C3381     1.48115      .   S
    C3392  C1018     1.40603      .   S
    C3392  C3391     1.48115      .   S
    C3422  C2132     1.40603      .   S
    C3422  C3421     1.48115      .   S
    C3432  C1294     1.40603      .   S
    C3432  C3431     1.48115      .   S
    C3462  C1969     1.40603      .   S
    C3462  C3461     1.48115      .   S
    C3472  C1554     1.40603      .   S
    C3472  C3471     1.48115      .   S
    C95    C93       1.40857      .   S
    C440   C438      1.40860      .   S
    C773   C771      1.40878      .   S
    C2679  C2677     1.40860      .   S
    C2939  C2937     1.40878      .   S
    C2419  C2417     1.40857      .   S
    O1518  Cr1487    1.87172      .   S
    O1518  C3461     1.26899      .   S
    O982   Cr951     1.87206      .   S
    O982   C3381     1.26899      .   S
    O1868  Cr1837    1.87206      .   S
    O1868  C3391     1.26899      .   S
    O1933  Cr1902    1.87145      .   S
    O1933  C3471     1.26899      .   S
    O1258  Cr1227    1.87145      .   S
    O1258  C3421     1.26899      .   S
    O2226  Cr2195    1.87172      .   S
    O2226  C3431     1.26899      .   S
    H1354  C1320     1.08312      .   S
    H1834  C1800     1.08312      .   S
    H2029  C1995     1.08312      .   S
    H546   C1044     1.08312      .   S
    H1614  C1580     1.08353      .   S
    H2192  C2158     1.08353      .   S
    O2428  C2403     1.27302      .   S
    O2428  Cr1658    1.88823      .   S
    O107   C79       1.27302      .   S
    O107   Cr3195    1.88823      .   S
    O2688  C2663     1.27239      .   S
    O2688  Cr1648    1.88869      .   S
    O449   C424      1.27239      .   S
    O449   Cr3205    1.88869      .   S
    O782   C757      1.27276      .   S
    O782   Cr3215    1.88832      .   S
    O2948  C2923     1.27276      .   S
    O2948  Cr1646    1.88832      .   S
    H1615  C1581     1.08327      .   S
    H547   C1045     1.08338      .   S
    H2030  C1996     1.08287      .   S
    H1355  C1321     1.08287      .   S
    H2193  C2159     1.08327      .   S
    H1835  C1801     1.08338      .   S
    C424   O448      1.27495      .   S
    C757   O781      1.27495      .   S
    C2663  O2687     1.27495      .   S
    C2403  O2427     1.27495      .   S
    C79    O106      1.27495      .   S
    C2923  O2947     1.27495      .   S
    C1554  H1600     1.08296      .   S
    C1774  H1820     1.08294      .   S
    C1969  H2015     1.08306      .   S
    C1294  H1340     1.08306      .   S
    C1018  H532      1.08294      .   S
    C2132  H2178     1.08296      .   S
    O1586  Cr3470    1.87208      .   S
    O2001  Cr3460    1.87222      .   S
    O2164  Cr3420    1.87208      .   S
    O1806  Cr3380    1.87206      .   S
    O1050  Cr3390    1.87206      .   S
    O1326  Cr3430    1.87222      .   S
    Cr1227 O1271     1.87307      .   S
    Cr1227 O1268     1.88990      .   S
    Cr1227 O3429     1.92593      .   S
    Cr1902 O1946     1.87307      .   S
    Cr1902 O1943     1.88990      .   S
    Cr1902 O3479     1.92593      .   S
    Cr1837 O1881     1.87184      .   S
    Cr1837 O1878     1.88990      .   S
    Cr1837 O3399     1.92607      .   S
    Cr1487 O1531     1.87258      .   S
    Cr1487 O1528     1.88990      .   S
    Cr1487 O3469     1.92532      .   S
    Cr951  O995      1.87184      .   S
    Cr951  O992      1.88990      .   S
    Cr951  O3389     1.92607      .   S
    Cr2195 O2239     1.87258      .   S
    Cr2195 O2236     1.88990      .   S
    Cr2195 O3439     1.92532      .   S
    C3391  O1047     1.26899      .   S
    C3421  O2161     1.26899      .   S
    C3381  O1803     1.26899      .   S
    C3431  O1323     1.26899      .   S
    C3461  O1998     1.26899      .   S
    C3471  O1583     1.26899      .   S
    C1800  C1801     1.39027      .   S
    C1800  C1796     1.40062      .   S
    C1580  C1581     1.39027      .   S
    C1580  C1576     1.40076      .   S
    C1995  C1996     1.39027      .   S
    C1995  C1991     1.40113      .   S
    C2158  C2159     1.39027      .   S
    C2158  C2154     1.40076      .   S
    C1044  C1045     1.39027      .   S
    C1044  C1040     1.40062      .   S
    C1320  C1321     1.39027      .   S
    C1320  C1316     1.40113      .   S
    O995   C1795     1.27038      .   S
    O1531  C1990     1.27044      .   S
    O1271  C2153     1.26993      .   S
    O1881  C1039     1.27038      .   S
    O2239  C1315     1.27044      .   S
    O1946  C1575     1.26993      .   S
    C2159  C2157     1.40817      .   S
    C1581  C1579     1.40817      .   S
    C1801  C1799     1.40860      .   S
    C1045  C1043     1.40860      .   S
    C1996  C1994     1.40857      .   S
    C1321  C1319     1.40857      .   S
    C766   H804      1.08281      .   S
    C766   C769      1.40238      .   S
    C88    H129      1.08279      .   S
    C88    C91       1.40238      .   S
    C2932  H2970     1.08281      .   S
    C2932  C2935     1.40238      .   S
    C433   H471      1.08330      .   S
    C433   C436      1.40238      .   S
    C2672  H2710     1.08330      .   S
    C2672  C2675     1.40238      .   S
    C2412  H2450     1.08279      .   S
    C2412  C2415     1.40238      .   S
    C2937  C2935     1.40426      .   S
    C2937  C1253     1.48153      .   S
    C771   C769      1.40426      .   S
    C771   C1928     1.48153      .   S
    C438   C436      1.40426      .   S
    C438   C1863     1.48181      .   S
    C2417  C2415     1.40426      .   S
    C2417  C1513     1.48126      .   S
    C2677  C2675     1.40426      .   S
    C2677  C977      1.48181      .   S
    C93    C91       1.40426      .   S
    C93    C2221     1.48126      .   S
    O2956  Cr1646    1.84852      .   S
    O2956  C1863     1.26278      .   S
    O2696  Cr1648    1.84888      .   S
    O2696  C1928     1.26278      .   S
    O2436  Cr1658    1.84913      .   S
    O2436  C2221     1.26278      .   S
    O115   Cr3195    1.84913      .   S
    O115   C1513     1.26278      .   S
    O790   Cr3215    1.84852      .   S
    O790   C977      1.26278      .   S
    O457   Cr3205    1.84888      .   S
    O457   C1253     1.26278      .   S
    C1575  C1576     1.47969  1_565   S
    C1575  O1595     1.26639      .   S
    C1039  C1040     1.47969      .   S
    C1039  O1059     1.26629      .   S
    C2153  C2154     1.47969  1_655   S
    C2153  O2173     1.26639      .   S
    C1990  C1991     1.47969  1_565   S
    C1990  O2010     1.26682      .   S
    C1315  C1316     1.47969  1_655   S
    C1315  O1335     1.26682      .   S
    C1795  C1796     1.47969      .   S
    C1795  O1815     1.26629      .   S
    H1960  C1922     1.08260      .   S
    H1285  C1247     1.08260      .   S
    H2253  C2215     1.08260      .   S
    H1545  C1507     1.08260      .   S
    H1009  C971      1.08260      .   S
    H1895  C1857     1.08260      .   S
    Cr1648 O1948     1.84892      .   S
    Cr1648 O1940     1.88873      .   S
    Cr1648 O1649     1.92102      .   S
    Cr3195 O1533     1.84913      .   S
    Cr3195 O1525     1.88823      .   S
    Cr3195 O3196     1.92102      .   S
    Cr3205 O1273     1.84892      .   S
    Cr3205 O1265     1.88873      .   S
    Cr3205 O3206     1.92102      .   S
    Cr3215 O997      1.84852      .   S
    Cr3215 O989      1.88832      .   S
    Cr3215 O3216     1.92102      .   S
    Cr1658 O2241     1.84913      .   S
    Cr1658 O2233     1.88823      .   S
    Cr1658 O1659     1.92102      .   S
    Cr1646 O1883     1.84852      .   S
    Cr1646 O1875     1.88832      .   S
    Cr1646 O1647     1.92102      .   S
    O448   Cr404     1.90167      .   S
    O2427  Cr2389    1.90167      .   S
    O2687  Cr2649    1.90167      .   S
    O2947  Cr2909    1.90167      .   S
    O106   Cr65      1.90167      .   S
    O781   Cr743     1.90167      .   S
    C1316  C1314     1.41016      .   S
    C1796  C1794     1.41016      .   S
    C2154  C2152     1.41016      .   S
    C1576  C1574     1.41016      .   S
    C1991  C1989     1.41016      .   S
    C1040  C1038     1.41016      .   S
    O1943  C3475     1.27177      .   S
    O2236  C3435     1.27227      .   S
    O1268  C3425     1.27177      .   S
    O1878  C3395     1.27233      .   S
    O992   C3385     1.27233      .   S
    O1528  C3465     1.27227      .   S
    O1948  C2676     1.26278      .   S
    O1273  C437      1.26278      .   S
    O997   C770      1.26278      .   S
    O1883  C2936     1.26278      .   S
    O2241  C2416     1.26278      .   S
    O1533  C92       1.26278      .   S
    C91    H130      1.08313      .   S
    C769   H805      1.08334      .   S
    C436   H472      1.08314      .   S
    C2415  H2451     1.08313      .   S
    C2675  H2711     1.08314      .   S
    C2935  H2971     1.08334      .   S
    O1803  Cr1772    1.87187      .   S
    O1583  Cr1552    1.87145      .   S
    O2161  Cr2130    1.87145      .   S
    O1998  Cr1967    1.87172      .   S
    O1323  Cr1292    1.87172      .   S
    O1047  Cr1016    1.87187      .   S
    C1319  C2416     1.48126      .   S
    C1319  C1317     1.40426      .   S
    C1043  C2936     1.48181      .   S
    C1043  C1041     1.40426      .   S
    C1799  C770      1.48181      .   S
    C1799  C1797     1.40426      .   S
    C2157  C437      1.48129      .   S
    C2157  C2155     1.40426      .   S
    C1994  C92       1.48126      .   S
    C1994  C1992     1.40426      .   S
    C1579  C2676     1.48129      .   S
    C1579  C1577     1.40426      .   S
    C1928  O1947     1.27213      .   S
    C977   O996      1.27224      .   S
    C2221  O2240     1.27227      .   S
    C1513  O1532     1.27227      .   S
    C1253  O1272     1.27213      .   S
    C1863  O1882     1.27224      .   S
    O1815  Cr3380    1.87089      .   S
    O1335  Cr3430    1.86975      .   S
    O2173  Cr3420    1.86988      .   S
    O1059  Cr3390    1.87089      .   S
    O2010  Cr3460    1.86975      .   S
    O1595  Cr3470    1.86988      .   S
    O3399  Cr1016    1.92498      .   S
    O3389  Cr1772    1.92498      .   S
    O3479  Cr1552    1.92593      .   S
    O3439  Cr1292    1.92532      .   S
    O3469  Cr1967    1.92532      .   S
    O3429  Cr2130    1.92593      .   S
    H1007  C969      1.08264      .   S
    H2251  C2213     1.08286      .   S
    H1958  C1920     1.08261      .   S
    H1283  C1245     1.08261      .   S
    H1543  C1505     1.08286      .   S
    H1893  C1855     1.08264      .   S
    C2416  O2435     1.27227      .   S
    C770   O789      1.27224      .   S
    C92    O114      1.27227      .   S
    C2936  O2955     1.27224      .   S
    C2676  O2695     1.27271      .   S
    C437   O456      1.27271      .   S
    Cr3420 O1261     1.87208      .   S
    Cr3420 O1270     1.86988      .   S
    Cr3470 O1936     1.87208      .   S
    Cr3470 O1945     1.86988      .   S
    Cr3460 O1521     1.87222      .   S
    Cr3460 O1530     1.86975      .   S
    Cr3380 O985      1.87163      .   S
    Cr3380 O994      1.87002      .   S
    Cr3390 O1871     1.87163      .   S
    Cr3390 O1880     1.87002      .   S
    Cr3430 O2229     1.87222      .   S
    Cr3430 O2238     1.86975      .   S
    H1546  C1508     1.08308      .   S
    H1010  C972      1.08308      .   S
    H1896  C1858     1.08308      .   S
    H2254  C2216     1.08308      .   S
    H1286  C1248     1.08308      .   S
    H1961  C1923     1.08308      .   S
    C1507  C1508     1.40693      .   S
    C1507  C3466     1.40869      .   S
    C2215  C2216     1.40693      .   S
    C2215  C3436     1.40869      .   S
    C1247  C1248     1.40693      .   S
    C1247  C3426     1.40896      .   S
    C1922  C1923     1.40693      .   S
    C1922  C3476     1.40896      .   S
    C971   C972      1.40693      .   S
    C971   C3386     1.40922      .   S
    C1857  C1858     1.40693      .   S
    C1857  C3396     1.40922      .   S
    C2152  C2155     1.40238      .   S
    C2152  H2190     1.08317  1_455   S
    C1574  C1577     1.40238      .   S
    C1574  H1612     1.08317  1_545   S
    C1794  C1797     1.40238      .   S
    C1794  H1832     1.08330      .   S
    C1314  C1317     1.40238      .   S
    C1314  H1352     1.08279  1_455   S
    C1038  C1041     1.40238      .   S
    C1038  H544      1.08330      .   S
    C1989  C1992     1.40238      .   S
    C1989  H2027     1.08279  1_545   S
    H1822  C1776     1.08257      .   S
    H1342  C1296     1.08257      .   S
    H2017  C1971     1.08257      .   S
    H534   C1020     1.08257      .   S
    H1602  C1556     1.08257      .   S
    H2180  C2134     1.08257      .   S
    O1265  C1240     1.27276      .   S
    O2233  C2208     1.27302      .   S
    O1940  C1915     1.27276      .   S
    O1525  C1500     1.27302      .   S
    O989   C964      1.27276      .   S
    O1875  C1850     1.27276      .   S
    O1871  C1021     1.26837      .   S
    O1936  C1557     1.26777      .   S
    O2229  C1297     1.26808      .   S
    O1261  C2135     1.26777      .   S
    O985   C1777     1.26837      .   S
    O1521  C1972     1.26808      .   S
    C1992  H2028     1.08313      .   S
    C2155  H2191     1.08273      .   S
    C1577  H1613     1.08273      .   S
    C1797  H1833     1.08314      .   S
    C1041  H545      1.08314      .   S
    C1317  H1353     1.08313      .   S
    H1959  C1921     1.08289      .   S
    H1008  C970      1.08243      .   S
    H2252  C2214     1.08263      .   S
    H1544  C1506     1.08263      .   S
    H1894  C1856     1.08243      .   S
    H1284  C1246     1.08289      .   S
    C3475  C3476     1.50353      .   S
    C3475  O1593     1.27177      .   S
    C3465  C3466     1.50353      .   S
    C3465  O2008     1.27227      .   S
    C3435  C3436     1.50353      .   S
    C3435  O1333     1.27227      .   S
    C3385  C3386     1.50353      .   S
    C3385  O1813     1.27123      .   S
    C3425  C3426     1.50353      .   S
    C3425  O2171     1.27177      .   S
    C3395  C3396     1.50353      .   S
    C3395  O1057     1.27123      .   S
    C1776  C1296     1.39819      .   S
    C1776  C1778     1.40697      .   S
    C1556  C2134     1.39819      .   S
    C1556  C1558     1.40726      .   S
    C1020  C1971     1.39819      .   S
    C1020  C1022     1.40697      .   S
    C2134  C2136     1.40726      .   S
    C1296  C1298     1.40665      .   S
    C1971  C1973     1.40665      .   S
    O2435  Cr2389    1.89273      .   S
    O456   Cr404     1.89273      .   S
    O789   Cr743     1.89273      .   S
    O114   Cr65      1.89273      .   S
    O2695  Cr2649    1.89273      .   S
    O2955  Cr2909    1.89273      .   S
    C1858  C3398     1.41318      .   S
    C1923  C3478     1.41318      .   S
    C1248  C3428     1.41318      .   S
    C2216  C3438     1.41318      .   S
    C1508  C3468     1.41318      .   S
    C972   C3388     1.41318      .   S
    C1021  C1022     1.49130      .   S
    C1021  O1049     1.27072      .   S
    C2135  C2136     1.49193      .   S
    C2135  O2163     1.27101      .   S
    C1777  C1778     1.49130      .   S
    C1777  O1805     1.27072      .   S
    C1972  C1973     1.49256      .   S
    C1972  O2000     1.27040      .   S
    C1557  C1558     1.49193      .   S
    C1557  O1585     1.27101      .   S
    C1297  C1298     1.49256      .   S
    C1297  O1325     1.27040      .   S
    C1973  C1974     1.40850      .   S
    C1778  C1779     1.40882      .   S
    C1558  C1559     1.40821      .   S
    C1022  C1023     1.40882      .   S
    C2136  C2137     1.40821      .   S
    C1298  C1299     1.40850      .   S
    C1855  C1856     1.40647      .   S
    C1855  C1851     1.41033      .   S
    C1505  C1506     1.40647      .   S
    C1505  C1501     1.41033      .   S
    C969   C970      1.40647      .   S
    C969   C965      1.41033      .   S
    C1245  C1246     1.40647      .   S
    C1245  C1241     1.41033      .   S
    C2213  C2214     1.40647      .   S
    C2213  C2209     1.41033      .   S
    C1920  C1921     1.40647      .   S
    C1920  C1916     1.41033      .   S
    O3206  Cr404     1.93298      .   S
    O1659  Cr2194    1.93298      .   S
    O1649  Cr2649    1.93298      .   S
    O1647  Cr2909    1.93298      .   S
    O3216  Cr743     1.93298      .   S
    O3196  Cr1486    1.93298      .   S
    O1947  Cr1901    1.89273      .   S
    O1532  Cr1486    1.89273      .   S
    O996   Cr950     1.89273      .   S
    O2240  Cr2194    1.89273      .   S
    O1882  Cr1836    1.89273      .   S
    O1272  Cr1226    1.89273      .   S
    C3426  C2150     1.40896      .   S
    C3436  C1312     1.40869      .   S
    C3466  C1987     1.40869      .   S
    C3476  C1572     1.40896      .   S
    C3396  C1036     1.40868      .   S
    C3386  C1792     1.40868      .   S
    Cr1292 O1325     1.88668      .   S
    Cr1292 O1333     1.88990      .   S
    Cr1292 O1336     1.87258      .   S
    Cr1016 O1049     1.88729      .   S
    Cr1016 O1057     1.88990      .   S
    Cr1016 O1060     1.87232      .   S
    Cr1772 O1805     1.88729      .   S
    Cr1772 O1813     1.88990      .   S
    Cr1772 O1816     1.87232      .   S
    Cr1552 O1585     1.88714      .   S
    Cr1552 O1593     1.88990      .   S
    Cr1552 O1596     1.87307      .   S
    Cr2130 O2163     1.88714      .   S
    Cr2130 O2171     1.88990      .   S
    Cr2130 O2174     1.87307      .   S
    Cr1967 O2000     1.88668      .   S
    Cr1967 O2008     1.88990      .   S
    Cr1967 O2011     1.87258      .   S
    Cr2909 O2945     1.89409      .   S
    Cr2909 O2946     1.89929      .   S
    Cr743  O779      1.89409      .   S
    Cr743  O780      1.89929      .   S
    Cr65   O104      1.89409      .   S
    Cr65   O105      1.89940      .   S
    Cr404  O446      1.89409      .   S
    Cr404  O447      1.89948      .   S
    Cr2389 O2425     1.89409      .   S
    Cr2389 O2426     1.89940      .   S
    Cr2649 O2685     1.89409      .   S
    Cr2649 O2686     1.89948      .   S
    C1299  C1779     1.40510      .   S
    C1299  H1343     1.08261      .   S
    C1779  H1823     1.08261      .   S
    C1559  C2137     1.40510      .   S
    C1559  H1603     1.08261      .   S
    C2137  H2181     1.08261      .   S
    C1974  C1023     1.40510      .   S
    C1974  H2018     1.08261      .   S
    C1023  H535      1.08261      .   S
    C1246  C1244     1.41009      .   S
    C1506  C1504     1.41009      .   S
    C1921  C1919     1.41009      .   S
    C2214  C2212     1.41009      .   S
    C1856  C1854     1.41009      .   S
    C970   C968      1.41009      .   S
    C1915  C1916     1.50873      .   S
    C1915  O1939     1.27495      .   S
    C1240  C1241     1.50873      .   S
    C1240  O1264     1.27495      .   S
    C1850  C1851     1.50873      .   S
    C1850  O1874     1.27495      .   S
    C964   C965      1.50873      .   S
    C964   O988      1.27495      .   S
    C1500  C1501     1.50873      .   S
    C1500  O1524     1.27495      .   S
    C2208  C2209     1.50873      .   S
    C2208  O2232     1.27495      .   S
    H121   C74       1.08332      .   S
    H2702  C2658     1.08302      .   S
    H2962  C2918     1.08272      .   S
    H2442  C2398     1.08332      .   S
    H463   C208      1.08302      .   S
    H796   C752      1.08272      .   S
    O779   C753      1.27399      .   S
    O2425  C2399     1.27399      .   S
    O446   C209      1.27399      .   S
    O104   C75       1.27399      .   S
    O2945  C2919     1.27399      .   S
    O2685  C2659     1.27399      .   S
    O1529  Cr3238    1.89044  1_565   S
    O1529  C3467     1.27301      .   S
    O1944  Cr3238    1.89044  1_565   S
    O1944  C3477     1.27301      .   S
    O1879  Cr3230    1.89044      .   S
    O1879  C3397     1.27301      .   S
    O993   Cr3230    1.89044      .   S
    O993   C3387     1.27301      .   S
    O1269  Cr3234    1.89044  1_655   S
    O1269  C3427     1.27301      .   S
    O2237  Cr3234    1.89044  1_655   S
    O2237  C3437     1.27301      .   S
    C752   C2658     1.40950      .   S
    C752   C754      1.41100      .   S
    C2398  C74       1.40950      .   S
    C2398  C2400     1.41127      .   S
    C2658  C2660     1.41067      .   S
    C208   C2918     1.40950      .   S
    C208   C210      1.41067      .   S
    C2918  C2920     1.41100      .   S
    C74    C76       1.41127      .   S
    C1851  C1849     1.41110      .   S
    C1241  C1239     1.41116      .   S
    C1501  C1499     1.41088      .   S
    C965   C963      1.41110      .   S
    C1916  C1914     1.41116      .   S
    C2209  C2207     1.41088      .   S
    O1880  C1860     1.26672      .   S
    O1945  C1925     1.26639      .   S
    O994   C974      1.26672      .   S
    O1530  C1510     1.26682      .   S
    O2238  C2218     1.26682      .   S
    O1270  C1250     1.26639      .   S
    C3398  C3397     1.42548      .   S
    C3398  C1037     1.41318      .   S
    C3438  C3437     1.42548      .   S
    C3438  C1313     1.41318      .   S
    C3388  C3387     1.42548      .   S
    C3388  C1793     1.41318      .   S
    C3428  C3427     1.42548      .   S
    C3428  C2151     1.41318      .   S
    C3468  C3467     1.42548      .   S
    C3468  C1988     1.41318      .   S
    C3478  C3477     1.42548      .   S
    C3478  C1573     1.41318      .   S
    Cr3238 O1527     1.88921      .   S
    Cr3238 O1942     1.88967      .   S
    Cr3238 O1687     1.92625  1_545   S
    Cr3234 O1267     1.88967      .   S
    Cr3234 O2235     1.88921      .   S
    Cr3234 O1683     1.92625  1_455   S
    Cr3230 O1877     1.88907      .   S
    Cr3230 O991      1.88907      .   S
    Cr3230 O1679     1.92625      .   S
    O1267  C1243     1.27227      .   S
    O1877  C1853     1.27273      .   S
    O2235  C2211     1.27252      .   S
    O1527  C1503     1.27252      .   S
    O991   C967      1.27273      .   S
    O1942  C1918     1.27227      .   S
    C209   C210      1.51132      .   S
    C209   O1263     1.27492      .   S
    C75    C76       1.51099      .   S
    C75    O1523     1.27552      .   S
    C2919  C2920     1.51070      .   S
    C2919  O1873     1.27522      .   S
    C2659  C2660     1.51132      .   S
    C2659  O1938     1.27492      .   S
    C753   C754      1.51070      .   S
    C753   O987      1.27522      .   S
    C2399  C2400     1.51099      .   S
    C2399  O2231     1.27552      .   S
    C2920  C2921     1.41173      .   S
    C2400  C2401     1.41113      .   S
    C754   C755      1.41173      .   S
    C210   C211      1.41140      .   S
    C2660  C2661     1.41140      .   S
    C76    C77       1.41113      .   S
    C1792  C1793     1.40693      .   S
    C1792  H1830     1.08260      .   S
    C2150  C2151     1.40693      .   S
    C2150  H2188     1.08260      .   S
    C1572  C1573     1.40693      .   S
    C1572  H1610     1.08260      .   S
    C1312  C1313     1.40693      .   S
    C1312  H1350     1.08260      .   S
    C1036  C1037     1.40693      .   S
    C1036  H542      1.08260      .   S
    C1987  C1988     1.40693      .   S
    C1987  H2025     1.08260      .   S
    O1874  Cr1836    1.90167      .   S
    O988   Cr950     1.90167      .   S
    O1939  Cr1901    1.90167      .   S
    O2232  Cr2194    1.90167      .   S
    O1264  Cr1226    1.90167      .   S
    O1524  Cr1486    1.90167      .   S
    Cr1486 O1523     1.89940      .   S
    Cr1486 O1522     1.89409      .   S
    Cr2194 O2231     1.89940      .   S
    Cr2194 O2230     1.89409      .   S
    Cr1901 O1938     1.89988      .   S
    Cr1901 O1937     1.89409      .   S
    Cr1836 O1873     1.89929      .   S
    Cr1836 O1872     1.89409      .   S
    Cr950  O987      1.89929      .   S
    Cr950  O986      1.89409      .   S
    Cr1226 O1263     1.89988      .   S
    Cr1226 O1262     1.89409      .   S
    C3477  O1594     1.27301      .   S
    C3437  O1334     1.27301      .   S
    C3387  O1814     1.27301      .   S
    C3427  O2172     1.27301      .   S
    C3467  O2009     1.27301      .   S
    C3397  O1058     1.27301      .   S
    C1504  C1503     1.50834      .   S
    C1504  C1502     1.41131      .   S
    C968   C967      1.50834      .   S
    C968   C966      1.41150      .   S
    C1244  C1243     1.50834      .   S
    C1244  C1242     1.41102      .   S
    C1919  C1918     1.50834      .   S
    C1919  C1917     1.41102      .   S
    C1854  C1853     1.50834      .   S
    C1854  C1852     1.41150      .   S
    C2212  C2211     1.50834      .   S
    C2212  C2210     1.41131      .   S
    O2174  C1250     1.26993      .   S
    O1596  C1925     1.26993      .   S
    O1060  C1860     1.27049      .   S
    O1336  C2218     1.27044      .   S
    O2011  C1510     1.27044      .   S
    O1816  C974      1.27049      .   S
    C2661  C755      1.41076      .   S
    C2661  H2703     1.08252      .   S
    C77    C2401     1.41076      .   S
    C77    H122      1.08252      .   S
    C755   H797      1.08252      .   S
    C211   C2921     1.41076      .   S
    C211   H464      1.08252      .   S
    C2921  H2963     1.08252      .   S
    C2401  H2443     1.08252      .   S
    C1573  H1611     1.08308      .   S
    C1793  H1831     1.08308      .   S
    C1313  H1351     1.08308      .   S
    C2151  H2189     1.08308      .   S
    C1037  H543      1.08308      .   S
    C1988  H2026     1.08308      .   S
    O447   C1236     1.27509      .   S
    O2426  C2204     1.27552      .   S
    O780   C960      1.27522      .   S
    O2686  C1911     1.27509      .   S
    O2946  C1846     1.27522      .   S
    O105   C1496     1.27552      .   S
    C1914  C1917     1.41201      .   S
    C1914  H1956     1.08234      .   S
    C2207  C2210     1.41201      .   S
    C2207  H2249     1.08234      .   S
    C963   C966      1.41201      .   S
    C963   H1005     1.08234      .   S
    C1499  C1502     1.41201      .   S
    C1499  H1541     1.08234      .   S
    C1849  C1852     1.41201      .   S
    C1849  H1891     1.08234      .   S
    C1239  C1242     1.41201      .   S
    C1239  H1281     1.08234      .   S
    O2230  C2204     1.27399      .   S
    O986   C960      1.27399      .   S
    O1872  C1846     1.27399      .   S
    O1522  C1496     1.27399      .   S
    O1937  C1911     1.27399      .   S
    O1262  C1236     1.27399      .   S
    O3194  Cr26      1.93298      .   S
    O3196  Cr65      1.93298      .   S
    O3198  Cr137     1.93298      .   S
    O3200  Cr1356    1.93298      .   S
    O3202  Cr1096    1.93298      .   S
    O3204  Cr339     1.93298      .   S
    O3206  Cr1226    1.93298      .   S
    O3208  Cr1161    1.93298      .   S
    O3210  Cr548     1.93298      .   S
    O3212  Cr613     1.93298      .   S
    O3214  Cr885     1.93298      .   S
    O3216  Cr950     1.93298      .   S
    O1641  Cr1616    1.93298      .   S
    O1643  Cr3039    1.93298      .   S
    O1645  Cr1771    1.93298      .   S
    O1647  Cr1836    1.93298      .   S
    O1649  Cr1901    1.93298      .   S
    O1651  Cr2844    1.93298      .   S
    O1653  Cr2031    1.93298      .   S
    O1655  Cr2096    1.93298      .   S
    O1657  Cr2584    1.93298      .   S
    O1659  Cr2389    1.93298      .   S
    O1661  Cr2454    1.93298      .   S
    O1663  Cr2519    1.93298      .   S
    O1665  Cr1664    1.93201      .   S
    O1667  Cr1666    1.93201      .   S
    O1669  Cr1668    1.93201      .   S
    O1671  Cr1670    1.93201      .   S
    O1673  Cr1672    1.93201      .   S
    O1675  Cr1674    1.93201      .   S
    O1677  Cr1676    1.93201  1_665   S
    O1679  Cr1678    1.93201  1_556   S
    O1681  Cr1680    1.93201  1_565   S
    O1683  Cr1682    1.93201  1_656   S
    O1685  Cr1684    1.93201  1_655   S
    O1687  Cr1686    1.93201  1_566   S
    O3249  Cr3240    1.92913      .   S
    O3259  Cr3250    1.92913      .   S
    O3269  Cr3260    1.92913      .   S
    O3279  Cr3270    1.92913      .   S
    O3289  Cr3280    1.92913      .   S
    O3299  Cr3290    1.92913      .   S
    O3309  Cr3300    1.92913      .   S
    O3319  Cr3310    1.92913      .   S
    O3329  Cr3320    1.92913      .   S
    O3339  Cr3330    1.92913      .   S
    O3349  Cr3340    1.92913      .   S
    O3359  Cr3350    1.92913      .   S
    O3369  Cr3360    1.92913      .   S
    O3379  Cr3370    1.92913      .   S
    O3389  Cr3380    1.92913      .   S
    O3399  Cr3390    1.92913      .   S
    O3409  Cr3400    1.92913      .   S
    O3419  Cr3410    1.92913      .   S
    O3429  Cr3420    1.92913      .   S
    O3439  Cr3430    1.92913      .   S
    O3449  Cr3440    1.92913      .   S
    O3459  Cr3450    1.92913      .   S
    O3469  Cr3460    1.92913      .   S
    O3479  Cr3470    1.92913      .   S
    O3528  Cr3169    1.92469      .   S
    O3529  Cr3175    1.92487      .   S
    O3530  Cr3178    1.92487      .   S
    O3531  Cr3174    1.92487      .   S
    O3532  Cr3181    1.92487      .   S
    O3533  Cr3187    1.92469      .   S
    O3534  Cr3188    1.92487      .   S
    O3535  Cr3191    1.92487      .   S
