# CIF file generated by openbabel 2.4.90, see http://openbabel.sf.net
data_I
_chemical_name_common ''
_cell_length_a 62.8399
_cell_length_b 62.8399
_cell_length_c 62.8399
_cell_angle_alpha 60
_cell_angle_beta 60
_cell_angle_gamma 60
_space_group_name_H-M_alt 'P 1'
_space_group_name_Hall 'P 1'
loop_
    _symmetry_equiv_pos_as_xyz
    x,y,z
loop_
    _atom_site_label
    _atom_site_type_symbol
    _atom_site_fract_x
    _atom_site_fract_y
    _atom_site_fract_z
    _atom_site_occupancy
    Zr0     Zr   0.11423   0.28384   0.65770   1.000
    Zr1     Zr   0.30656   0.35963   0.53034   1.000
    Zr2     Zr   0.31227   0.38220   0.47489   1.000
    Zr3     Zr   0.15936   0.25305   0.62501   1.000
    Zr4     Zr   0.14404   0.29961   0.66831   1.000
    Zr5     Zr   0.20310   0.27199   0.73261   1.000
    Zr6     Zr   0.34166   0.27304   0.52830   1.000
    Zr7     Zr   0.07796   0.33257   0.66808   1.000
    Zr8     Zr   0.42559   0.46103   0.50214   1.000
    Zr9     Zr   0.33327   0.36883   0.52525   1.000
    Zr10    Zr   0.40801   0.44352   0.48477   1.000
    Zr11    Zr   0.30637   0.38370   0.49673   1.000
    Zr12    Zr   0.36082   0.31969   0.47176   1.000
    Zr13    Zr   0.14341   0.25626   0.64681   1.000
    Zr14    Zr   0.09285   0.28098   0.64670   1.000
    Zr15    Zr   0.13396   0.28390   0.67277   1.000
    Zr16    Zr   0.14205   0.32149   0.65000   1.000
    Zr17    Zr   0.20797   0.24927   0.74940   1.000
    Zr18    Zr   0.21218   0.28867   0.72771   1.000
    Zr19    Zr   0.30379   0.33926   0.56556   1.000
    Zr20    Zr   0.25801   0.29346   0.70249   1.000
    Zr21    Zr   0.33112   0.29016   0.51111   1.000
    Zr22    Zr   0.27746   0.35332   0.53657   1.000
    Zr23    Zr   0.08410   0.30855   0.67227   1.000
    Zr24    Zr   0.15737   0.33907   0.59943   1.000
    Zr25    Zr   0.28384   0.11423   0.94423   1.000
    Zr26    Zr   0.35963   0.30656   0.80348   1.000
    Zr27    Zr   0.38220   0.31227   0.83063   1.000
    Zr28    Zr   0.25305   0.15936   0.96258   1.000
    Zr29    Zr   0.29961   0.14404   0.88804   1.000
    Zr30    Zr   0.27199   0.20310   0.79230   1.000
    Zr31    Zr   0.27304   0.34166   0.85700   1.000
    Zr32    Zr   0.33257   0.07796   0.92138   1.000
    Zr33    Zr   0.46103   0.42559   0.61124   1.000
    Zr34    Zr   0.36883   0.33327   0.77265   1.000
    Zr35    Zr   0.44352   0.40801   0.66370   1.000
    Zr36    Zr   0.38370   0.30637   0.81320   1.000
    Zr37    Zr   0.31969   0.36082   0.84773   1.000
    Zr38    Zr   0.25626   0.14341   0.95352   1.000
    Zr39    Zr   0.28098   0.09285   0.97946   1.000
    Zr40    Zr   0.28390   0.13396   0.90937   1.000
    Zr41    Zr   0.32149   0.14205   0.88647   1.000
    Zr42    Zr   0.24927   0.20797   0.79336   1.000
    Zr43    Zr   0.28867   0.21218   0.77143   1.000
    Zr44    Zr   0.33926   0.30379   0.79140   1.000
    Zr45    Zr   0.29346   0.25801   0.74604   1.000
    Zr46    Zr   0.29016   0.33112   0.86762   1.000
    Zr47    Zr   0.35332   0.27746   0.83264   1.000
    Zr48    Zr   0.30855   0.08410   0.93508   1.000
    Zr49    Zr   0.33907   0.15737   0.90414   1.000
    Zr50    Zr   0.65770   0.94423   0.11423   1.000
    Zr51    Zr   0.53034   0.80348   0.30656   1.000
    Zr52    Zr   0.47489   0.83063   0.31227   1.000
    Zr53    Zr   0.62501   0.96258   0.15936   1.000
    Zr54    Zr   0.66831   0.88804   0.14404   1.000
    Zr55    Zr   0.73261   0.79230   0.20310   1.000
    Zr56    Zr   0.52830   0.85700   0.34166   1.000
    Zr57    Zr   0.66808   0.92138   0.07796   1.000
    Zr58    Zr   0.50214   0.61124   0.42559   1.000
    Zr59    Zr   0.52525   0.77265   0.33327   1.000
    Zr60    Zr   0.48477   0.66370   0.40801   1.000
    Zr61    Zr   0.49673   0.81320   0.30637   1.000
    Zr62    Zr   0.47176   0.84773   0.36082   1.000
    Zr63    Zr   0.64681   0.95352   0.14341   1.000
    Zr64    Zr   0.64670   0.97946   0.09285   1.000
    Zr65    Zr   0.67277   0.90937   0.13396   1.000
    Zr66    Zr   0.65000   0.88647   0.14205   1.000
    Zr67    Zr   0.74940   0.79336   0.20797   1.000
    Zr68    Zr   0.72771   0.77143   0.21218   1.000
    Zr69    Zr   0.56556   0.79140   0.30379   1.000
    Zr70    Zr   0.70249   0.74604   0.25801   1.000
    Zr71    Zr   0.51111   0.86762   0.33112   1.000
    Zr72    Zr   0.53657   0.83264   0.27746   1.000
    Zr73    Zr   0.67227   0.93508   0.08410   1.000
    Zr74    Zr   0.59943   0.90414   0.15737   1.000
    Zr75    Zr   0.94423   0.65770   0.28384   1.000
    Zr76    Zr   0.80348   0.53034   0.35963   1.000
    Zr77    Zr   0.83063   0.47489   0.38220   1.000
    Zr78    Zr   0.96258   0.62501   0.25305   1.000
    Zr79    Zr   0.88804   0.66831   0.29961   1.000
    Zr80    Zr   0.79230   0.73261   0.27199   1.000
    Zr81    Zr   0.85700   0.52830   0.27304   1.000
    Zr82    Zr   0.92138   0.66808   0.33257   1.000
    Zr83    Zr   0.61124   0.50214   0.46103   1.000
    Zr84    Zr   0.77265   0.52525   0.36883   1.000
    Zr85    Zr   0.66370   0.48477   0.44352   1.000
    Zr86    Zr   0.81320   0.49673   0.38370   1.000
    Zr87    Zr   0.84773   0.47176   0.31969   1.000
    Zr88    Zr   0.95352   0.64681   0.25626   1.000
    Zr89    Zr   0.97946   0.64670   0.28098   1.000
    Zr90    Zr   0.90937   0.67277   0.28390   1.000
    Zr91    Zr   0.88647   0.65000   0.32149   1.000
    Zr92    Zr   0.79336   0.74940   0.24927   1.000
    Zr93    Zr   0.77143   0.72771   0.28867   1.000
    Zr94    Zr   0.79140   0.56556   0.33926   1.000
    Zr95    Zr   0.74604   0.70249   0.29346   1.000
    Zr96    Zr   0.86762   0.51111   0.29016   1.000
    Zr97    Zr   0.83264   0.53657   0.35332   1.000
    Zr98    Zr   0.93508   0.67227   0.30855   1.000
    Zr99    Zr   0.90414   0.59943   0.33907   1.000
    Zr100   Zr   0.65770   0.11423   0.28384   1.000
    Zr101   Zr   0.53034   0.30656   0.35963   1.000
    Zr102   Zr   0.47489   0.31227   0.38220   1.000
    Zr103   Zr   0.62501   0.15936   0.25305   1.000
    Zr104   Zr   0.66831   0.14404   0.29961   1.000
    Zr105   Zr   0.73261   0.20310   0.27199   1.000
    Zr106   Zr   0.52830   0.34166   0.27304   1.000
    Zr107   Zr   0.66808   0.07796   0.33257   1.000
    Zr108   Zr   0.50214   0.42559   0.46103   1.000
    Zr109   Zr   0.52525   0.33327   0.36883   1.000
    Zr110   Zr   0.48477   0.40801   0.44352   1.000
    Zr111   Zr   0.49673   0.30637   0.38370   1.000
    Zr112   Zr   0.47176   0.36082   0.31969   1.000
    Zr113   Zr   0.64681   0.14341   0.25626   1.000
    Zr114   Zr   0.64670   0.09285   0.28098   1.000
    Zr115   Zr   0.67277   0.13396   0.28390   1.000
    Zr116   Zr   0.65000   0.14205   0.32149   1.000
    Zr117   Zr   0.74940   0.20797   0.24927   1.000
    Zr118   Zr   0.72771   0.21218   0.28867   1.000
    Zr119   Zr   0.56556   0.30379   0.33926   1.000
    Zr120   Zr   0.70249   0.25801   0.29346   1.000
    Zr121   Zr   0.51111   0.33112   0.29016   1.000
    Zr122   Zr   0.53657   0.27746   0.35332   1.000
    Zr123   Zr   0.67227   0.08410   0.30855   1.000
    Zr124   Zr   0.59943   0.15737   0.33907   1.000
    Zr125   Zr   0.94423   0.28384   0.11423   1.000
    Zr126   Zr   0.80348   0.35963   0.30656   1.000
    Zr127   Zr   0.83063   0.38220   0.31227   1.000
    Zr128   Zr   0.96258   0.25305   0.15936   1.000
    Zr129   Zr   0.88804   0.29961   0.14404   1.000
    Zr130   Zr   0.79230   0.27199   0.20310   1.000
    Zr131   Zr   0.85700   0.27304   0.34166   1.000
    Zr132   Zr   0.92138   0.33257   0.07796   1.000
    Zr133   Zr   0.61124   0.46103   0.42559   1.000
    Zr134   Zr   0.77265   0.36883   0.33327   1.000
    Zr135   Zr   0.66370   0.44352   0.40801   1.000
    Zr136   Zr   0.81320   0.38370   0.30637   1.000
    Zr137   Zr   0.84773   0.31969   0.36082   1.000
    Zr138   Zr   0.95352   0.25626   0.14341   1.000
    Zr139   Zr   0.97946   0.28098   0.09285   1.000
    Zr140   Zr   0.90937   0.28390   0.13396   1.000
    Zr141   Zr   0.88647   0.32149   0.14205   1.000
    Zr142   Zr   0.79336   0.24927   0.20797   1.000
    Zr143   Zr   0.77143   0.28867   0.21218   1.000
    Zr144   Zr   0.79140   0.33926   0.30379   1.000
    Zr145   Zr   0.74604   0.29346   0.25801   1.000
    Zr146   Zr   0.86762   0.29016   0.33112   1.000
    Zr147   Zr   0.83264   0.35332   0.27746   1.000
    Zr148   Zr   0.93508   0.30855   0.08410   1.000
    Zr149   Zr   0.90414   0.33907   0.15737   1.000
    Zr150   Zr   0.11423   0.65770   0.94423   1.000
    Zr151   Zr   0.30656   0.53034   0.80348   1.000
    Zr152   Zr   0.31227   0.47489   0.83063   1.000
    Zr153   Zr   0.15936   0.62501   0.96258   1.000
    Zr154   Zr   0.14404   0.66831   0.88804   1.000
    Zr155   Zr   0.20310   0.73261   0.79230   1.000
    Zr156   Zr   0.34166   0.52830   0.85700   1.000
    Zr157   Zr   0.07796   0.66808   0.92138   1.000
    Zr158   Zr   0.42559   0.50214   0.61124   1.000
    Zr159   Zr   0.33327   0.52525   0.77265   1.000
    Zr160   Zr   0.40801   0.48477   0.66370   1.000
    Zr161   Zr   0.30637   0.49673   0.81320   1.000
    Zr162   Zr   0.36082   0.47176   0.84773   1.000
    Zr163   Zr   0.14341   0.64681   0.95352   1.000
    Zr164   Zr   0.09285   0.64670   0.97946   1.000
    Zr165   Zr   0.13396   0.67277   0.90937   1.000
    Zr166   Zr   0.14205   0.65000   0.88647   1.000
    Zr167   Zr   0.20797   0.74940   0.79336   1.000
    Zr168   Zr   0.21218   0.72771   0.77143   1.000
    Zr169   Zr   0.30379   0.56556   0.79140   1.000
    Zr170   Zr   0.25801   0.70249   0.74604   1.000
    Zr171   Zr   0.33112   0.51111   0.86762   1.000
    Zr172   Zr   0.27746   0.53657   0.83264   1.000
    Zr173   Zr   0.08410   0.67227   0.93508   1.000
    Zr174   Zr   0.15737   0.59943   0.90414   1.000
    Zr175   Zr   0.28384   0.94423   0.65770   1.000
    Zr176   Zr   0.35963   0.80348   0.53034   1.000
    Zr177   Zr   0.38220   0.83063   0.47489   1.000
    Zr178   Zr   0.25305   0.96258   0.62501   1.000
    Zr179   Zr   0.29961   0.88804   0.66831   1.000
    Zr180   Zr   0.27199   0.79230   0.73261   1.000
    Zr181   Zr   0.27304   0.85700   0.52830   1.000
    Zr182   Zr   0.33257   0.92138   0.66808   1.000
    Zr183   Zr   0.46103   0.61124   0.50214   1.000
    Zr184   Zr   0.36883   0.77265   0.52525   1.000
    Zr185   Zr   0.44352   0.66370   0.48477   1.000
    Zr186   Zr   0.38370   0.81320   0.49673   1.000
    Zr187   Zr   0.31969   0.84773   0.47176   1.000
    Zr188   Zr   0.25626   0.95352   0.64681   1.000
    Zr189   Zr   0.28098   0.97946   0.64670   1.000
    Zr190   Zr   0.28390   0.90937   0.67277   1.000
    Zr191   Zr   0.32149   0.88647   0.65000   1.000
    Zr192   Zr   0.24927   0.79336   0.74940   1.000
    Zr193   Zr   0.28867   0.77143   0.72771   1.000
    Zr194   Zr   0.33926   0.79140   0.56556   1.000
    Zr195   Zr   0.29346   0.74604   0.70249   1.000
    Zr196   Zr   0.29016   0.86762   0.51111   1.000
    Zr197   Zr   0.35332   0.83264   0.53657   1.000
    Zr198   Zr   0.30855   0.93508   0.67227   1.000
    Zr199   Zr   0.33907   0.90414   0.59943   1.000
    Zr200   Zr   0.28384   0.65770   0.11423   1.000
    Zr201   Zr   0.35963   0.53034   0.30656   1.000
    Zr202   Zr   0.38220   0.47489   0.31227   1.000
    Zr203   Zr   0.25305   0.62501   0.15936   1.000
    Zr204   Zr   0.29961   0.66831   0.14404   1.000
    Zr205   Zr   0.27199   0.73261   0.20310   1.000
    Zr206   Zr   0.27304   0.52830   0.34166   1.000
    Zr207   Zr   0.33257   0.66808   0.07796   1.000
    Zr208   Zr   0.46103   0.50214   0.42559   1.000
    Zr209   Zr   0.36883   0.52525   0.33327   1.000
    Zr210   Zr   0.44352   0.48477   0.40801   1.000
    Zr211   Zr   0.38370   0.49673   0.30637   1.000
    Zr212   Zr   0.31969   0.47176   0.36082   1.000
    Zr213   Zr   0.25626   0.64681   0.14341   1.000
    Zr214   Zr   0.28098   0.64670   0.09285   1.000
    Zr215   Zr   0.28390   0.67277   0.13396   1.000
    Zr216   Zr   0.32149   0.65000   0.14205   1.000
    Zr217   Zr   0.24927   0.74940   0.20797   1.000
    Zr218   Zr   0.28867   0.72771   0.21218   1.000
    Zr219   Zr   0.33926   0.56556   0.30379   1.000
    Zr220   Zr   0.29346   0.70249   0.25801   1.000
    Zr221   Zr   0.29016   0.51111   0.33112   1.000
    Zr222   Zr   0.35332   0.53657   0.27746   1.000
    Zr223   Zr   0.30855   0.67227   0.08410   1.000
    Zr224   Zr   0.33907   0.59943   0.15737   1.000
    Zr225   Zr   0.11423   0.94423   0.28384   1.000
    Zr226   Zr   0.30656   0.80348   0.35963   1.000
    Zr227   Zr   0.31227   0.83063   0.38220   1.000
    Zr228   Zr   0.15936   0.96258   0.25305   1.000
    Zr229   Zr   0.14404   0.88804   0.29961   1.000
    Zr230   Zr   0.20310   0.79230   0.27199   1.000
    Zr231   Zr   0.34166   0.85700   0.27304   1.000
    Zr232   Zr   0.07796   0.92138   0.33257   1.000
    Zr233   Zr   0.42559   0.61124   0.46103   1.000
    Zr234   Zr   0.33327   0.77265   0.36883   1.000
    Zr235   Zr   0.40801   0.66370   0.44352   1.000
    Zr236   Zr   0.30637   0.81320   0.38370   1.000
    Zr237   Zr   0.36082   0.84773   0.31969   1.000
    Zr238   Zr   0.14341   0.95352   0.25626   1.000
    Zr239   Zr   0.09285   0.97946   0.28098   1.000
    Zr240   Zr   0.13396   0.90937   0.28390   1.000
    Zr241   Zr   0.14205   0.88647   0.32149   1.000
    Zr242   Zr   0.20797   0.79336   0.24927   1.000
    Zr243   Zr   0.21218   0.77143   0.28867   1.000
    Zr244   Zr   0.30379   0.79140   0.33926   1.000
    Zr245   Zr   0.25801   0.74604   0.29346   1.000
    Zr246   Zr   0.33112   0.86762   0.29016   1.000
    Zr247   Zr   0.27746   0.83264   0.35332   1.000
    Zr248   Zr   0.08410   0.93508   0.30855   1.000
    Zr249   Zr   0.15737   0.90414   0.33907   1.000
    Zr250   Zr   0.94423   0.11423   0.65770   1.000
    Zr251   Zr   0.80348   0.30656   0.53034   1.000
    Zr252   Zr   0.83063   0.31227   0.47489   1.000
    Zr253   Zr   0.96258   0.15936   0.62501   1.000
    Zr254   Zr   0.88804   0.14404   0.66831   1.000
    Zr255   Zr   0.79230   0.20310   0.73261   1.000
    Zr256   Zr   0.85700   0.34166   0.52830   1.000
    Zr257   Zr   0.92138   0.07796   0.66808   1.000
    Zr258   Zr   0.61124   0.42559   0.50214   1.000
    Zr259   Zr   0.77265   0.33327   0.52525   1.000
    Zr260   Zr   0.66370   0.40801   0.48477   1.000
    Zr261   Zr   0.81320   0.30637   0.49673   1.000
    Zr262   Zr   0.84773   0.36082   0.47176   1.000
    Zr263   Zr   0.95352   0.14341   0.64681   1.000
    Zr264   Zr   0.97946   0.09285   0.64670   1.000
    Zr265   Zr   0.90937   0.13396   0.67277   1.000
    Zr266   Zr   0.88647   0.14205   0.65000   1.000
    Zr267   Zr   0.79336   0.20797   0.74940   1.000
    Zr268   Zr   0.77143   0.21218   0.72771   1.000
    Zr269   Zr   0.79140   0.30379   0.56556   1.000
    Zr270   Zr   0.74604   0.25801   0.70249   1.000
    Zr271   Zr   0.86762   0.33112   0.51111   1.000
    Zr272   Zr   0.83264   0.27746   0.53657   1.000
    Zr273   Zr   0.93508   0.08410   0.67227   1.000
    Zr274   Zr   0.90414   0.15737   0.59943   1.000
    Zr275   Zr   0.65770   0.28384   0.94423   1.000
    Zr276   Zr   0.53034   0.35963   0.80348   1.000
    Zr277   Zr   0.47489   0.38220   0.83063   1.000
    Zr278   Zr   0.62501   0.25305   0.96258   1.000
    Zr279   Zr   0.66831   0.29961   0.88804   1.000
    Zr280   Zr   0.73261   0.27199   0.79230   1.000
    Zr281   Zr   0.52830   0.27304   0.85700   1.000
    Zr282   Zr   0.66808   0.33257   0.92138   1.000
    Zr283   Zr   0.50214   0.46103   0.61124   1.000
    Zr284   Zr   0.52525   0.36883   0.77265   1.000
    Zr285   Zr   0.48477   0.44352   0.66370   1.000
    Zr286   Zr   0.49673   0.38370   0.81320   1.000
    Zr287   Zr   0.47176   0.31969   0.84773   1.000
    Zr288   Zr   0.64681   0.25626   0.95352   1.000
    Zr289   Zr   0.64670   0.28098   0.97946   1.000
    Zr290   Zr   0.67277   0.28390   0.90937   1.000
    Zr291   Zr   0.65000   0.32149   0.88647   1.000
    Zr292   Zr   0.74940   0.24927   0.79336   1.000
    Zr293   Zr   0.72771   0.28867   0.77143   1.000
    Zr294   Zr   0.56556   0.33926   0.79140   1.000
    Zr295   Zr   0.70249   0.29346   0.74604   1.000
    Zr296   Zr   0.51111   0.29016   0.86762   1.000
    Zr297   Zr   0.53657   0.35332   0.83264   1.000
    Zr298   Zr   0.67227   0.30855   0.93508   1.000
    Zr299   Zr   0.59943   0.33907   0.90414   1.000
    Zr300   Zr   0.13577   0.96616   0.30577   1.000
    Zr301   Zr   0.94344   0.89037   0.44652   1.000
    Zr302   Zr   0.93773   0.86780   0.41937   1.000
    Zr303   Zr   0.09064   0.99695   0.28742   1.000
    Zr304   Zr   0.10596   0.95039   0.36196   1.000
    Zr305   Zr   0.04690   0.97801   0.45770   1.000
    Zr306   Zr   0.90834   0.97696   0.39300   1.000
    Zr307   Zr   0.17204   0.91743   0.32862   1.000
    Zr308   Zr   0.82441   0.78897   0.63876   1.000
    Zr309   Zr   0.91673   0.88117   0.47735   1.000
    Zr310   Zr   0.84199   0.80648   0.58630   1.000
    Zr311   Zr   0.94363   0.86630   0.43680   1.000
    Zr312   Zr   0.88918   0.93031   0.40227   1.000
    Zr313   Zr   0.10659   0.99374   0.29648   1.000
    Zr314   Zr   0.15715   0.96902   0.27054   1.000
    Zr315   Zr   0.11604   0.96610   0.34063   1.000
    Zr316   Zr   0.10795   0.92851   0.36353   1.000
    Zr317   Zr   0.04203   0.00073   0.45664   1.000
    Zr318   Zr   0.03782   0.96133   0.47857   1.000
    Zr319   Zr   0.94621   0.91074   0.45860   1.000
    Zr320   Zr   0.99199   0.95654   0.50396   1.000
    Zr321   Zr   0.91888   0.95984   0.38238   1.000
    Zr322   Zr   0.97254   0.89668   0.41736   1.000
    Zr323   Zr   0.16590   0.94145   0.31492   1.000
    Zr324   Zr   0.09263   0.91093   0.34586   1.000
    Zr325   Zr   0.96616   0.13577   0.59230   1.000
    Zr326   Zr   0.89037   0.94344   0.71966   1.000
    Zr327   Zr   0.86780   0.93773   0.77511   1.000
    Zr328   Zr   0.99695   0.09064   0.62499   1.000
    Zr329   Zr   0.95039   0.10596   0.58169   1.000
    Zr330   Zr   0.97801   0.04690   0.51739   1.000
    Zr331   Zr   0.97696   0.90834   0.72170   1.000
    Zr332   Zr   0.91743   0.17204   0.58192   1.000
    Zr333   Zr   0.78897   0.82441   0.74786   1.000
    Zr334   Zr   0.88117   0.91673   0.72475   1.000
    Zr335   Zr   0.80648   0.84199   0.76523   1.000
    Zr336   Zr   0.86630   0.94363   0.75327   1.000
    Zr337   Zr   0.93031   0.88918   0.77824   1.000
    Zr338   Zr   0.99374   0.10659   0.60319   1.000
    Zr339   Zr   0.96902   0.15715   0.60330   1.000
    Zr340   Zr   0.96610   0.11604   0.57723   1.000
    Zr341   Zr   0.92851   0.10795   0.60000   1.000
    Zr342   Zr   0.00073   0.04203   0.50060   1.000
    Zr343   Zr   0.96133   0.03782   0.52229   1.000
    Zr344   Zr   0.91074   0.94621   0.68444   1.000
    Zr345   Zr   0.95654   0.99199   0.54751   1.000
    Zr346   Zr   0.95984   0.91888   0.73889   1.000
    Zr347   Zr   0.89668   0.97254   0.71343   1.000
    Zr348   Zr   0.94145   0.16590   0.57773   1.000
    Zr349   Zr   0.91093   0.09263   0.65057   1.000
    Zr350   Zr   0.59230   0.30577   0.96616   1.000
    Zr351   Zr   0.71966   0.44652   0.89037   1.000
    Zr352   Zr   0.77511   0.41937   0.86780   1.000
    Zr353   Zr   0.62499   0.28742   0.99695   1.000
    Zr354   Zr   0.58169   0.36196   0.95039   1.000
    Zr355   Zr   0.51739   0.45770   0.97801   1.000
    Zr356   Zr   0.72170   0.39300   0.97696   1.000
    Zr357   Zr   0.58192   0.32862   0.91743   1.000
    Zr358   Zr   0.74786   0.63876   0.78897   1.000
    Zr359   Zr   0.72475   0.47735   0.88117   1.000
    Zr360   Zr   0.76523   0.58630   0.80648   1.000
    Zr361   Zr   0.75327   0.43680   0.86630   1.000
    Zr362   Zr   0.77824   0.40227   0.93031   1.000
    Zr363   Zr   0.60319   0.29648   0.99374   1.000
    Zr364   Zr   0.60330   0.27054   0.96902   1.000
    Zr365   Zr   0.57723   0.34063   0.96610   1.000
    Zr366   Zr   0.60000   0.36353   0.92851   1.000
    Zr367   Zr   0.50060   0.45664   0.00073   1.000
    Zr368   Zr   0.52229   0.47857   0.96133   1.000
    Zr369   Zr   0.68444   0.45860   0.91074   1.000
    Zr370   Zr   0.54751   0.50396   0.95654   1.000
    Zr371   Zr   0.73889   0.38238   0.95984   1.000
    Zr372   Zr   0.71343   0.41736   0.89668   1.000
    Zr373   Zr   0.57773   0.31492   0.94145   1.000
    Zr374   Zr   0.65057   0.34586   0.91093   1.000
    Zr375   Zr   0.30577   0.59230   0.13577   1.000
    Zr376   Zr   0.44652   0.71966   0.94344   1.000
    Zr377   Zr   0.41937   0.77511   0.93773   1.000
    Zr378   Zr   0.28742   0.62499   0.09064   1.000
    Zr379   Zr   0.36196   0.58169   0.10596   1.000
    Zr380   Zr   0.45770   0.51739   0.04690   1.000
    Zr381   Zr   0.39300   0.72170   0.90834   1.000
    Zr382   Zr   0.32862   0.58192   0.17204   1.000
    Zr383   Zr   0.63876   0.74786   0.82441   1.000
    Zr384   Zr   0.47735   0.72475   0.91673   1.000
    Zr385   Zr   0.58630   0.76523   0.84199   1.000
    Zr386   Zr   0.43680   0.75327   0.94363   1.000
    Zr387   Zr   0.40227   0.77824   0.88918   1.000
    Zr388   Zr   0.29648   0.60319   0.10659   1.000
    Zr389   Zr   0.27054   0.60330   0.15715   1.000
    Zr390   Zr   0.34063   0.57723   0.11604   1.000
    Zr391   Zr   0.36353   0.60000   0.10795   1.000
    Zr392   Zr   0.45664   0.50060   0.04203   1.000
    Zr393   Zr   0.47857   0.52229   0.03782   1.000
    Zr394   Zr   0.45860   0.68444   0.94621   1.000
    Zr395   Zr   0.50396   0.54751   0.99199   1.000
    Zr396   Zr   0.38238   0.73889   0.91888   1.000
    Zr397   Zr   0.41736   0.71343   0.97254   1.000
    Zr398   Zr   0.31492   0.57773   0.16590   1.000
    Zr399   Zr   0.34586   0.65057   0.09263   1.000
    Zr400   Zr   0.59230   0.13577   0.30577   1.000
    Zr401   Zr   0.71966   0.94344   0.44652   1.000
    Zr402   Zr   0.77511   0.93773   0.41937   1.000
    Zr403   Zr   0.62499   0.09064   0.28742   1.000
    Zr404   Zr   0.58169   0.10596   0.36196   1.000
    Zr405   Zr   0.51739   0.04690   0.45770   1.000
    Zr406   Zr   0.72170   0.90834   0.39300   1.000
    Zr407   Zr   0.58192   0.17204   0.32862   1.000
    Zr408   Zr   0.74786   0.82441   0.63876   1.000
    Zr409   Zr   0.72475   0.91673   0.47735   1.000
    Zr410   Zr   0.76523   0.84199   0.58630   1.000
    Zr411   Zr   0.75327   0.94363   0.43680   1.000
    Zr412   Zr   0.77824   0.88918   0.40227   1.000
    Zr413   Zr   0.60319   0.10659   0.29648   1.000
    Zr414   Zr   0.60330   0.15715   0.27054   1.000
    Zr415   Zr   0.57723   0.11604   0.34063   1.000
    Zr416   Zr   0.60000   0.10795   0.36353   1.000
    Zr417   Zr   0.50060   0.04203   0.45664   1.000
    Zr418   Zr   0.52229   0.03782   0.47857   1.000
    Zr419   Zr   0.68444   0.94621   0.45860   1.000
    Zr420   Zr   0.54751   0.99199   0.50396   1.000
    Zr421   Zr   0.73889   0.91888   0.38238   1.000
    Zr422   Zr   0.71343   0.97254   0.41736   1.000
    Zr423   Zr   0.57773   0.16590   0.31492   1.000
    Zr424   Zr   0.65057   0.09263   0.34586   1.000
    Zr425   Zr   0.30577   0.96616   0.59230   1.000
    Zr426   Zr   0.44652   0.89037   0.71966   1.000
    Zr427   Zr   0.41937   0.86780   0.77511   1.000
    Zr428   Zr   0.28742   0.99695   0.62499   1.000
    Zr429   Zr   0.36196   0.95039   0.58169   1.000
    Zr430   Zr   0.45770   0.97801   0.51739   1.000
    Zr431   Zr   0.39300   0.97696   0.72170   1.000
    Zr432   Zr   0.32862   0.91743   0.58192   1.000
    Zr433   Zr   0.63876   0.78897   0.74786   1.000
    Zr434   Zr   0.47735   0.88117   0.72475   1.000
    Zr435   Zr   0.58630   0.80648   0.76523   1.000
    Zr436   Zr   0.43680   0.86630   0.75327   1.000
    Zr437   Zr   0.40227   0.93031   0.77824   1.000
    Zr438   Zr   0.29648   0.99374   0.60319   1.000
    Zr439   Zr   0.27054   0.96902   0.60330   1.000
    Zr440   Zr   0.34063   0.96610   0.57723   1.000
    Zr441   Zr   0.36353   0.92851   0.60000   1.000
    Zr442   Zr   0.45664   0.00073   0.50060   1.000
    Zr443   Zr   0.47857   0.96133   0.52229   1.000
    Zr444   Zr   0.45860   0.91074   0.68444   1.000
    Zr445   Zr   0.50396   0.95654   0.54751   1.000
    Zr446   Zr   0.38238   0.95984   0.73889   1.000
    Zr447   Zr   0.41736   0.89668   0.71343   1.000
    Zr448   Zr   0.31492   0.94145   0.57773   1.000
    Zr449   Zr   0.34586   0.91093   0.65057   1.000
    Zr450   Zr   0.13577   0.59230   0.96616   1.000
    Zr451   Zr   0.94344   0.71966   0.89037   1.000
    Zr452   Zr   0.93773   0.77511   0.86780   1.000
    Zr453   Zr   0.09064   0.62499   0.99695   1.000
    Zr454   Zr   0.10596   0.58169   0.95039   1.000
    Zr455   Zr   0.04690   0.51739   0.97801   1.000
    Zr456   Zr   0.90834   0.72170   0.97696   1.000
    Zr457   Zr   0.17204   0.58192   0.91743   1.000
    Zr458   Zr   0.82441   0.74786   0.78897   1.000
    Zr459   Zr   0.91673   0.72475   0.88117   1.000
    Zr460   Zr   0.84199   0.76523   0.80648   1.000
    Zr461   Zr   0.94363   0.75327   0.86630   1.000
    Zr462   Zr   0.88918   0.77824   0.93031   1.000
    Zr463   Zr   0.10659   0.60319   0.99374   1.000
    Zr464   Zr   0.15715   0.60330   0.96902   1.000
    Zr465   Zr   0.11604   0.57723   0.96610   1.000
    Zr466   Zr   0.10795   0.60000   0.92851   1.000
    Zr467   Zr   0.04203   0.50060   0.00073   1.000
    Zr468   Zr   0.03782   0.52229   0.96133   1.000
    Zr469   Zr   0.94621   0.68444   0.91074   1.000
    Zr470   Zr   0.99199   0.54751   0.95654   1.000
    Zr471   Zr   0.91888   0.73889   0.95984   1.000
    Zr472   Zr   0.97254   0.71343   0.89668   1.000
    Zr473   Zr   0.16590   0.57773   0.94145   1.000
    Zr474   Zr   0.09263   0.65057   0.91093   1.000
    Zr475   Zr   0.96616   0.30577   0.13577   1.000
    Zr476   Zr   0.89037   0.44652   0.94344   1.000
    Zr477   Zr   0.86780   0.41937   0.93773   1.000
    Zr478   Zr   0.99695   0.28742   0.09064   1.000
    Zr479   Zr   0.95039   0.36196   0.10596   1.000
    Zr480   Zr   0.97801   0.45770   0.04690   1.000
    Zr481   Zr   0.97696   0.39300   0.90834   1.000
    Zr482   Zr   0.91743   0.32862   0.17204   1.000
    Zr483   Zr   0.78897   0.63876   0.82441   1.000
    Zr484   Zr   0.88117   0.47735   0.91673   1.000
    Zr485   Zr   0.80648   0.58630   0.84199   1.000
    Zr486   Zr   0.86630   0.43680   0.94363   1.000
    Zr487   Zr   0.93031   0.40227   0.88918   1.000
    Zr488   Zr   0.99374   0.29648   0.10659   1.000
    Zr489   Zr   0.96902   0.27054   0.15715   1.000
    Zr490   Zr   0.96610   0.34063   0.11604   1.000
    Zr491   Zr   0.92851   0.36353   0.10795   1.000
    Zr492   Zr   0.00073   0.45664   0.04203   1.000
    Zr493   Zr   0.96133   0.47857   0.03782   1.000
    Zr494   Zr   0.91074   0.45860   0.94621   1.000
    Zr495   Zr   0.95654   0.50396   0.99199   1.000
    Zr496   Zr   0.95984   0.38238   0.91888   1.000
    Zr497   Zr   0.89668   0.41736   0.97254   1.000
    Zr498   Zr   0.94145   0.31492   0.16590   1.000
    Zr499   Zr   0.91093   0.34586   0.09263   1.000
    Zr500   Zr   0.96616   0.59230   0.30577   1.000
    Zr501   Zr   0.89037   0.71966   0.44652   1.000
    Zr502   Zr   0.86780   0.77511   0.41937   1.000
    Zr503   Zr   0.99695   0.62499   0.28742   1.000
    Zr504   Zr   0.95039   0.58169   0.36196   1.000
    Zr505   Zr   0.97801   0.51739   0.45770   1.000
    Zr506   Zr   0.97696   0.72170   0.39300   1.000
    Zr507   Zr   0.91743   0.58192   0.32862   1.000
    Zr508   Zr   0.78897   0.74786   0.63876   1.000
    Zr509   Zr   0.88117   0.72475   0.47735   1.000
    Zr510   Zr   0.80648   0.76523   0.58630   1.000
    Zr511   Zr   0.86630   0.75327   0.43680   1.000
    Zr512   Zr   0.93031   0.77824   0.40227   1.000
    Zr513   Zr   0.99374   0.60319   0.29648   1.000
    Zr514   Zr   0.96902   0.60330   0.27054   1.000
    Zr515   Zr   0.96610   0.57723   0.34063   1.000
    Zr516   Zr   0.92851   0.60000   0.36353   1.000
    Zr517   Zr   0.00073   0.50060   0.45664   1.000
    Zr518   Zr   0.96133   0.52229   0.47857   1.000
    Zr519   Zr   0.91074   0.68444   0.45860   1.000
    Zr520   Zr   0.95654   0.54751   0.50396   1.000
    Zr521   Zr   0.95984   0.73889   0.38238   1.000
    Zr522   Zr   0.89668   0.71343   0.41736   1.000
    Zr523   Zr   0.94145   0.57773   0.31492   1.000
    Zr524   Zr   0.91093   0.65057   0.34586   1.000
    Zr525   Zr   0.13577   0.30577   0.59230   1.000
    Zr526   Zr   0.94344   0.44652   0.71966   1.000
    Zr527   Zr   0.93773   0.41937   0.77511   1.000
    Zr528   Zr   0.09064   0.28742   0.62499   1.000
    Zr529   Zr   0.10596   0.36196   0.58169   1.000
    Zr530   Zr   0.04690   0.45770   0.51739   1.000
    Zr531   Zr   0.90834   0.39300   0.72170   1.000
    Zr532   Zr   0.17204   0.32862   0.58192   1.000
    Zr533   Zr   0.82441   0.63876   0.74786   1.000
    Zr534   Zr   0.91673   0.47735   0.72475   1.000
    Zr535   Zr   0.84199   0.58630   0.76523   1.000
    Zr536   Zr   0.94363   0.43680   0.75327   1.000
    Zr537   Zr   0.88918   0.40227   0.77824   1.000
    Zr538   Zr   0.10659   0.29648   0.60319   1.000
    Zr539   Zr   0.15715   0.27054   0.60330   1.000
    Zr540   Zr   0.11604   0.34063   0.57723   1.000
    Zr541   Zr   0.10795   0.36353   0.60000   1.000
    Zr542   Zr   0.04203   0.45664   0.50060   1.000
    Zr543   Zr   0.03782   0.47857   0.52229   1.000
    Zr544   Zr   0.94621   0.45860   0.68444   1.000
    Zr545   Zr   0.99199   0.50396   0.54751   1.000
    Zr546   Zr   0.91888   0.38238   0.73889   1.000
    Zr547   Zr   0.97254   0.41736   0.71343   1.000
    Zr548   Zr   0.16590   0.31492   0.57773   1.000
    Zr549   Zr   0.09263   0.34586   0.65057   1.000
    Zr550   Zr   0.30577   0.13577   0.96616   1.000
    Zr551   Zr   0.44652   0.94344   0.89037   1.000
    Zr552   Zr   0.41937   0.93773   0.86780   1.000
    Zr553   Zr   0.28742   0.09064   0.99695   1.000
    Zr554   Zr   0.36196   0.10596   0.95039   1.000
    Zr555   Zr   0.45770   0.04690   0.97801   1.000
    Zr556   Zr   0.39300   0.90834   0.97696   1.000
    Zr557   Zr   0.32862   0.17204   0.91743   1.000
    Zr558   Zr   0.63876   0.82441   0.78897   1.000
    Zr559   Zr   0.47735   0.91673   0.88117   1.000
    Zr560   Zr   0.58630   0.84199   0.80648   1.000
    Zr561   Zr   0.43680   0.94363   0.86630   1.000
    Zr562   Zr   0.40227   0.88918   0.93031   1.000
    Zr563   Zr   0.29648   0.10659   0.99374   1.000
    Zr564   Zr   0.27054   0.15715   0.96902   1.000
    Zr565   Zr   0.34063   0.11604   0.96610   1.000
    Zr566   Zr   0.36353   0.10795   0.92851   1.000
    Zr567   Zr   0.45664   0.04203   0.00073   1.000
    Zr568   Zr   0.47857   0.03782   0.96133   1.000
    Zr569   Zr   0.45860   0.94621   0.91074   1.000
    Zr570   Zr   0.50396   0.99199   0.95654   1.000
    Zr571   Zr   0.38238   0.91888   0.95984   1.000
    Zr572   Zr   0.41736   0.97254   0.89668   1.000
    Zr573   Zr   0.31492   0.16590   0.94145   1.000
    Zr574   Zr   0.34586   0.09263   0.91093   1.000
    Zr575   Zr   0.59230   0.96616   0.13577   1.000
    Zr576   Zr   0.71966   0.89037   0.94344   1.000
    Zr577   Zr   0.77511   0.86780   0.93773   1.000
    Zr578   Zr   0.62499   0.99695   0.09064   1.000
    Zr579   Zr   0.58169   0.95039   0.10596   1.000
    Zr580   Zr   0.51739   0.97801   0.04690   1.000
    Zr581   Zr   0.72170   0.97696   0.90834   1.000
    Zr582   Zr   0.58192   0.91743   0.17204   1.000
    Zr583   Zr   0.74786   0.78897   0.82441   1.000
    Zr584   Zr   0.72475   0.88117   0.91673   1.000
    Zr585   Zr   0.76523   0.80648   0.84199   1.000
    Zr586   Zr   0.75327   0.86630   0.94363   1.000
    Zr587   Zr   0.77824   0.93031   0.88918   1.000
    Zr588   Zr   0.60319   0.99374   0.10659   1.000
    Zr589   Zr   0.60330   0.96902   0.15715   1.000
    Zr590   Zr   0.57723   0.96610   0.11604   1.000
    Zr591   Zr   0.60000   0.92851   0.10795   1.000
    Zr592   Zr   0.50060   0.00073   0.04203   1.000
    Zr593   Zr   0.52229   0.96133   0.03782   1.000
    Zr594   Zr   0.68444   0.91074   0.94621   1.000
    Zr595   Zr   0.54751   0.95654   0.99199   1.000
    Zr596   Zr   0.73889   0.95984   0.91888   1.000
    Zr597   Zr   0.71343   0.89668   0.97254   1.000
    Zr598   Zr   0.57773   0.94145   0.16590   1.000
    Zr599   Zr   0.65057   0.91093   0.09263   1.000
    Zr600   Zr   0.13577   0.96616   0.59230   1.000
    Zr601   Zr   0.94344   0.89037   0.71966   1.000
    Zr602   Zr   0.93773   0.86780   0.77511   1.000
    Zr603   Zr   0.09064   0.99695   0.62499   1.000
    Zr604   Zr   0.10596   0.95039   0.58169   1.000
    Zr605   Zr   0.04690   0.97801   0.51739   1.000
    Zr606   Zr   0.90834   0.97696   0.72170   1.000
    Zr607   Zr   0.17204   0.91743   0.58192   1.000
    Zr608   Zr   0.82441   0.78897   0.74786   1.000
    Zr609   Zr   0.91673   0.88117   0.72475   1.000
    Zr610   Zr   0.84199   0.80648   0.76523   1.000
    Zr611   Zr   0.94363   0.86630   0.75327   1.000
    Zr612   Zr   0.88918   0.93031   0.77824   1.000
    Zr613   Zr   0.10659   0.99374   0.60319   1.000
    Zr614   Zr   0.15715   0.96902   0.60330   1.000
    Zr615   Zr   0.11604   0.96610   0.57723   1.000
    Zr616   Zr   0.10795   0.92851   0.60000   1.000
    Zr617   Zr   0.04203   0.00073   0.50060   1.000
    Zr618   Zr   0.03782   0.96133   0.52229   1.000
    Zr619   Zr   0.94621   0.91074   0.68444   1.000
    Zr620   Zr   0.99199   0.95654   0.54751   1.000
    Zr621   Zr   0.91888   0.95984   0.73889   1.000
    Zr622   Zr   0.97254   0.89668   0.71343   1.000
    Zr623   Zr   0.16590   0.94145   0.57773   1.000
    Zr624   Zr   0.09263   0.91093   0.65057   1.000
    Zr625   Zr   0.96616   0.13577   0.30577   1.000
    Zr626   Zr   0.89037   0.94344   0.44652   1.000
    Zr627   Zr   0.86780   0.93773   0.41937   1.000
    Zr628   Zr   0.99695   0.09064   0.28742   1.000
    Zr629   Zr   0.95039   0.10596   0.36196   1.000
    Zr630   Zr   0.97801   0.04690   0.45770   1.000
    Zr631   Zr   0.97696   0.90834   0.39300   1.000
    Zr632   Zr   0.91743   0.17204   0.32862   1.000
    Zr633   Zr   0.78897   0.82441   0.63876   1.000
    Zr634   Zr   0.88117   0.91673   0.47735   1.000
    Zr635   Zr   0.80648   0.84199   0.58630   1.000
    Zr636   Zr   0.86630   0.94363   0.43680   1.000
    Zr637   Zr   0.93031   0.88918   0.40227   1.000
    Zr638   Zr   0.99374   0.10659   0.29648   1.000
    Zr639   Zr   0.96902   0.15715   0.27054   1.000
    Zr640   Zr   0.96610   0.11604   0.34063   1.000
    Zr641   Zr   0.92851   0.10795   0.36353   1.000
    Zr642   Zr   0.00073   0.04203   0.45664   1.000
    Zr643   Zr   0.96133   0.03782   0.47857   1.000
    Zr644   Zr   0.91074   0.94621   0.45860   1.000
    Zr645   Zr   0.95654   0.99199   0.50396   1.000
    Zr646   Zr   0.95984   0.91888   0.38238   1.000
    Zr647   Zr   0.89668   0.97254   0.41736   1.000
    Zr648   Zr   0.94145   0.16590   0.31492   1.000
    Zr649   Zr   0.91093   0.09263   0.34586   1.000
    Zr650   Zr   0.59230   0.30577   0.13577   1.000
    Zr651   Zr   0.71966   0.44652   0.94344   1.000
    Zr652   Zr   0.77511   0.41937   0.93773   1.000
    Zr653   Zr   0.62499   0.28742   0.09064   1.000
    Zr654   Zr   0.58169   0.36196   0.10596   1.000
    Zr655   Zr   0.51739   0.45770   0.04690   1.000
    Zr656   Zr   0.72170   0.39300   0.90834   1.000
    Zr657   Zr   0.58192   0.32862   0.17204   1.000
    Zr658   Zr   0.74786   0.63876   0.82441   1.000
    Zr659   Zr   0.72475   0.47735   0.91673   1.000
    Zr660   Zr   0.76523   0.58630   0.84199   1.000
    Zr661   Zr   0.75327   0.43680   0.94363   1.000
    Zr662   Zr   0.77824   0.40227   0.88918   1.000
    Zr663   Zr   0.60319   0.29648   0.10659   1.000
    Zr664   Zr   0.60330   0.27054   0.15715   1.000
    Zr665   Zr   0.57723   0.34063   0.11604   1.000
    Zr666   Zr   0.60000   0.36353   0.10795   1.000
    Zr667   Zr   0.50060   0.45664   0.04203   1.000
    Zr668   Zr   0.52229   0.47857   0.03782   1.000
    Zr669   Zr   0.68444   0.45860   0.94621   1.000
    Zr670   Zr   0.54751   0.50396   0.99199   1.000
    Zr671   Zr   0.73889   0.38238   0.91888   1.000
    Zr672   Zr   0.71343   0.41736   0.97254   1.000
    Zr673   Zr   0.57773   0.31492   0.16590   1.000
    Zr674   Zr   0.65057   0.34586   0.09263   1.000
    Zr675   Zr   0.30577   0.59230   0.96616   1.000
    Zr676   Zr   0.44652   0.71966   0.89037   1.000
    Zr677   Zr   0.41937   0.77511   0.86780   1.000
    Zr678   Zr   0.28742   0.62499   0.99695   1.000
    Zr679   Zr   0.36196   0.58169   0.95039   1.000
    Zr680   Zr   0.45770   0.51739   0.97801   1.000
    Zr681   Zr   0.39300   0.72170   0.97696   1.000
    Zr682   Zr   0.32862   0.58192   0.91743   1.000
    Zr683   Zr   0.63876   0.74786   0.78897   1.000
    Zr684   Zr   0.47735   0.72475   0.88117   1.000
    Zr685   Zr   0.58630   0.76523   0.80648   1.000
    Zr686   Zr   0.43680   0.75327   0.86630   1.000
    Zr687   Zr   0.40227   0.77824   0.93031   1.000
    Zr688   Zr   0.29648   0.60319   0.99374   1.000
    Zr689   Zr   0.27054   0.60330   0.96902   1.000
    Zr690   Zr   0.34063   0.57723   0.96610   1.000
    Zr691   Zr   0.36353   0.60000   0.92851   1.000
    Zr692   Zr   0.45664   0.50060   0.00073   1.000
    Zr693   Zr   0.47857   0.52229   0.96133   1.000
    Zr694   Zr   0.45860   0.68444   0.91074   1.000
    Zr695   Zr   0.50396   0.54751   0.95654   1.000
    Zr696   Zr   0.38238   0.73889   0.95984   1.000
    Zr697   Zr   0.41736   0.71343   0.89668   1.000
    Zr698   Zr   0.31492   0.57773   0.94145   1.000
    Zr699   Zr   0.34586   0.65057   0.91093   1.000
    Zr700   Zr   0.59230   0.13577   0.96616   1.000
    Zr701   Zr   0.71966   0.94344   0.89037   1.000
    Zr702   Zr   0.77511   0.93773   0.86780   1.000
    Zr703   Zr   0.62499   0.09064   0.99695   1.000
    Zr704   Zr   0.58169   0.10596   0.95039   1.000
    Zr705   Zr   0.51739   0.04690   0.97801   1.000
    Zr706   Zr   0.72170   0.90834   0.97696   1.000
    Zr707   Zr   0.58192   0.17204   0.91743   1.000
    Zr708   Zr   0.74786   0.82441   0.78897   1.000
    Zr709   Zr   0.72475   0.91673   0.88117   1.000
    Zr710   Zr   0.76523   0.84199   0.80648   1.000
    Zr711   Zr   0.75327   0.94363   0.86630   1.000
    Zr712   Zr   0.77824   0.88918   0.93031   1.000
    Zr713   Zr   0.60319   0.10659   0.99374   1.000
    Zr714   Zr   0.60330   0.15715   0.96902   1.000
    Zr715   Zr   0.57723   0.11604   0.96610   1.000
    Zr716   Zr   0.60000   0.10795   0.92851   1.000
    Zr717   Zr   0.50060   0.04203   0.00073   1.000
    Zr718   Zr   0.52229   0.03782   0.96133   1.000
    Zr719   Zr   0.68444   0.94621   0.91074   1.000
    Zr720   Zr   0.54751   0.99199   0.95654   1.000
    Zr721   Zr   0.73889   0.91888   0.95984   1.000
    Zr722   Zr   0.71343   0.97254   0.89668   1.000
    Zr723   Zr   0.57773   0.16590   0.94145   1.000
    Zr724   Zr   0.65057   0.09263   0.91093   1.000
    Zr725   Zr   0.30577   0.96616   0.13577   1.000
    Zr726   Zr   0.44652   0.89037   0.94344   1.000
    Zr727   Zr   0.41937   0.86780   0.93773   1.000
    Zr728   Zr   0.28742   0.99695   0.09064   1.000
    Zr729   Zr   0.36196   0.95039   0.10596   1.000
    Zr730   Zr   0.45770   0.97801   0.04690   1.000
    Zr731   Zr   0.39300   0.97696   0.90834   1.000
    Zr732   Zr   0.32862   0.91743   0.17204   1.000
    Zr733   Zr   0.63876   0.78897   0.82441   1.000
    Zr734   Zr   0.47735   0.88117   0.91673   1.000
    Zr735   Zr   0.58630   0.80648   0.84199   1.000
    Zr736   Zr   0.43680   0.86630   0.94363   1.000
    Zr737   Zr   0.40227   0.93031   0.88918   1.000
    Zr738   Zr   0.29648   0.99374   0.10659   1.000
    Zr739   Zr   0.27054   0.96902   0.15715   1.000
    Zr740   Zr   0.34063   0.96610   0.11604   1.000
    Zr741   Zr   0.36353   0.92851   0.10795   1.000
    Zr742   Zr   0.45664   0.00073   0.04203   1.000
    Zr743   Zr   0.47857   0.96133   0.03782   1.000
    Zr744   Zr   0.45860   0.91074   0.94621   1.000
    Zr745   Zr   0.50396   0.95654   0.99199   1.000
    Zr746   Zr   0.38238   0.95984   0.91888   1.000
    Zr747   Zr   0.41736   0.89668   0.97254   1.000
    Zr748   Zr   0.31492   0.94145   0.16590   1.000
    Zr749   Zr   0.34586   0.91093   0.09263   1.000
    Zr750   Zr   0.13577   0.59230   0.30577   1.000
    Zr751   Zr   0.94344   0.71966   0.44652   1.000
    Zr752   Zr   0.93773   0.77511   0.41937   1.000
    Zr753   Zr   0.09064   0.62499   0.28742   1.000
    Zr754   Zr   0.10596   0.58169   0.36196   1.000
    Zr755   Zr   0.04690   0.51739   0.45770   1.000
    Zr756   Zr   0.90834   0.72170   0.39300   1.000
    Zr757   Zr   0.17204   0.58192   0.32862   1.000
    Zr758   Zr   0.82441   0.74786   0.63876   1.000
    Zr759   Zr   0.91673   0.72475   0.47735   1.000
    Zr760   Zr   0.84199   0.76523   0.58630   1.000
    Zr761   Zr   0.94363   0.75327   0.43680   1.000
    Zr762   Zr   0.88918   0.77824   0.40227   1.000
    Zr763   Zr   0.10659   0.60319   0.29648   1.000
    Zr764   Zr   0.15715   0.60330   0.27054   1.000
    Zr765   Zr   0.11604   0.57723   0.34063   1.000
    Zr766   Zr   0.10795   0.60000   0.36353   1.000
    Zr767   Zr   0.04203   0.50060   0.45664   1.000
    Zr768   Zr   0.03782   0.52229   0.47857   1.000
    Zr769   Zr   0.94621   0.68444   0.45860   1.000
    Zr770   Zr   0.99199   0.54751   0.50396   1.000
    Zr771   Zr   0.91888   0.73889   0.38238   1.000
    Zr772   Zr   0.97254   0.71343   0.41736   1.000
    Zr773   Zr   0.16590   0.57773   0.31492   1.000
    Zr774   Zr   0.09263   0.65057   0.34586   1.000
    Zr775   Zr   0.96616   0.30577   0.59230   1.000
    Zr776   Zr   0.89037   0.44652   0.71966   1.000
    Zr777   Zr   0.86780   0.41937   0.77511   1.000
    Zr778   Zr   0.99695   0.28742   0.62499   1.000
    Zr779   Zr   0.95039   0.36196   0.58169   1.000
    Zr780   Zr   0.97801   0.45770   0.51739   1.000
    Zr781   Zr   0.97696   0.39300   0.72170   1.000
    Zr782   Zr   0.91743   0.32862   0.58192   1.000
    Zr783   Zr   0.78897   0.63876   0.74786   1.000
    Zr784   Zr   0.88117   0.47735   0.72475   1.000
    Zr785   Zr   0.80648   0.58630   0.76523   1.000
    Zr786   Zr   0.86630   0.43680   0.75327   1.000
    Zr787   Zr   0.93031   0.40227   0.77824   1.000
    Zr788   Zr   0.99374   0.29648   0.60319   1.000
    Zr789   Zr   0.96902   0.27054   0.60330   1.000
    Zr790   Zr   0.96610   0.34063   0.57723   1.000
    Zr791   Zr   0.92851   0.36353   0.60000   1.000
    Zr792   Zr   0.00073   0.45664   0.50060   1.000
    Zr793   Zr   0.96133   0.47857   0.52229   1.000
    Zr794   Zr   0.91074   0.45860   0.68444   1.000
    Zr795   Zr   0.95654   0.50396   0.54751   1.000
    Zr796   Zr   0.95984   0.38238   0.73889   1.000
    Zr797   Zr   0.89668   0.41736   0.71343   1.000
    Zr798   Zr   0.94145   0.31492   0.57773   1.000
    Zr799   Zr   0.91093   0.34586   0.65057   1.000
    Zr800   Zr   0.96616   0.59230   0.13577   1.000
    Zr801   Zr   0.89037   0.71966   0.94344   1.000
    Zr802   Zr   0.86780   0.77511   0.93773   1.000
    Zr803   Zr   0.99695   0.62499   0.09064   1.000
    Zr804   Zr   0.95039   0.58169   0.10596   1.000
    Zr805   Zr   0.97801   0.51739   0.04690   1.000
    Zr806   Zr   0.97696   0.72170   0.90834   1.000
    Zr807   Zr   0.91743   0.58192   0.17204   1.000
    Zr808   Zr   0.78897   0.74786   0.82441   1.000
    Zr809   Zr   0.88117   0.72475   0.91673   1.000
    Zr810   Zr   0.80648   0.76523   0.84199   1.000
    Zr811   Zr   0.86630   0.75327   0.94363   1.000
    Zr812   Zr   0.93031   0.77824   0.88918   1.000
    Zr813   Zr   0.99374   0.60319   0.10659   1.000
    Zr814   Zr   0.96902   0.60330   0.15715   1.000
    Zr815   Zr   0.96610   0.57723   0.11604   1.000
    Zr816   Zr   0.92851   0.60000   0.10795   1.000
    Zr817   Zr   0.00073   0.50060   0.04203   1.000
    Zr818   Zr   0.96133   0.52229   0.03782   1.000
    Zr819   Zr   0.91074   0.68444   0.94621   1.000
    Zr820   Zr   0.95654   0.54751   0.99199   1.000
    Zr821   Zr   0.95984   0.73889   0.91888   1.000
    Zr822   Zr   0.89668   0.71343   0.97254   1.000
    Zr823   Zr   0.94145   0.57773   0.16590   1.000
    Zr824   Zr   0.91093   0.65057   0.09263   1.000
    Zr825   Zr   0.13577   0.30577   0.96616   1.000
    Zr826   Zr   0.94344   0.44652   0.89037   1.000
    Zr827   Zr   0.93773   0.41937   0.86780   1.000
    Zr828   Zr   0.09064   0.28742   0.99695   1.000
    Zr829   Zr   0.10596   0.36196   0.95039   1.000
    Zr830   Zr   0.04690   0.45770   0.97801   1.000
    Zr831   Zr   0.90834   0.39300   0.97696   1.000
    Zr832   Zr   0.17204   0.32862   0.91743   1.000
    Zr833   Zr   0.82441   0.63876   0.78897   1.000
    Zr834   Zr   0.91673   0.47735   0.88117   1.000
    Zr835   Zr   0.84199   0.58630   0.80648   1.000
    Zr836   Zr   0.94363   0.43680   0.86630   1.000
    Zr837   Zr   0.88918   0.40227   0.93031   1.000
    Zr838   Zr   0.10659   0.29648   0.99374   1.000
    Zr839   Zr   0.15715   0.27054   0.96902   1.000
    Zr840   Zr   0.11604   0.34063   0.96610   1.000
    Zr841   Zr   0.10795   0.36353   0.92851   1.000
    Zr842   Zr   0.04203   0.45664   0.00073   1.000
    Zr843   Zr   0.03782   0.47857   0.96133   1.000
    Zr844   Zr   0.94621   0.45860   0.91074   1.000
    Zr845   Zr   0.99199   0.50396   0.95654   1.000
    Zr846   Zr   0.91888   0.38238   0.95984   1.000
    Zr847   Zr   0.97254   0.41736   0.89668   1.000
    Zr848   Zr   0.16590   0.31492   0.94145   1.000
    Zr849   Zr   0.09263   0.34586   0.91093   1.000
    Zr850   Zr   0.30577   0.13577   0.59230   1.000
    Zr851   Zr   0.44652   0.94344   0.71966   1.000
    Zr852   Zr   0.41937   0.93773   0.77511   1.000
    Zr853   Zr   0.28742   0.09064   0.62499   1.000
    Zr854   Zr   0.36196   0.10596   0.58169   1.000
    Zr855   Zr   0.45770   0.04690   0.51739   1.000
    Zr856   Zr   0.39300   0.90834   0.72170   1.000
    Zr857   Zr   0.32862   0.17204   0.58192   1.000
    Zr858   Zr   0.63876   0.82441   0.74786   1.000
    Zr859   Zr   0.47735   0.91673   0.72475   1.000
    Zr860   Zr   0.58630   0.84199   0.76523   1.000
    Zr861   Zr   0.43680   0.94363   0.75327   1.000
    Zr862   Zr   0.40227   0.88918   0.77824   1.000
    Zr863   Zr   0.29648   0.10659   0.60319   1.000
    Zr864   Zr   0.27054   0.15715   0.60330   1.000
    Zr865   Zr   0.34063   0.11604   0.57723   1.000
    Zr866   Zr   0.36353   0.10795   0.60000   1.000
    Zr867   Zr   0.45664   0.04203   0.50060   1.000
    Zr868   Zr   0.47857   0.03782   0.52229   1.000
    Zr869   Zr   0.45860   0.94621   0.68444   1.000
    Zr870   Zr   0.50396   0.99199   0.54751   1.000
    Zr871   Zr   0.38238   0.91888   0.73889   1.000
    Zr872   Zr   0.41736   0.97254   0.71343   1.000
    Zr873   Zr   0.31492   0.16590   0.57773   1.000
    Zr874   Zr   0.34586   0.09263   0.65057   1.000
    Zr875   Zr   0.59230   0.96616   0.30577   1.000
    Zr876   Zr   0.71966   0.89037   0.44652   1.000
    Zr877   Zr   0.77511   0.86780   0.41937   1.000
    Zr878   Zr   0.62499   0.99695   0.28742   1.000
    Zr879   Zr   0.58169   0.95039   0.36196   1.000
    Zr880   Zr   0.51739   0.97801   0.45770   1.000
    Zr881   Zr   0.72170   0.97696   0.39300   1.000
    Zr882   Zr   0.58192   0.91743   0.32862   1.000
    Zr883   Zr   0.74786   0.78897   0.63876   1.000
    Zr884   Zr   0.72475   0.88117   0.47735   1.000
    Zr885   Zr   0.76523   0.80648   0.58630   1.000
    Zr886   Zr   0.75327   0.86630   0.43680   1.000
    Zr887   Zr   0.77824   0.93031   0.40227   1.000
    Zr888   Zr   0.60319   0.99374   0.29648   1.000
    Zr889   Zr   0.60330   0.96902   0.27054   1.000
    Zr890   Zr   0.57723   0.96610   0.34063   1.000
    Zr891   Zr   0.60000   0.92851   0.36353   1.000
    Zr892   Zr   0.50060   0.00073   0.45664   1.000
    Zr893   Zr   0.52229   0.96133   0.47857   1.000
    Zr894   Zr   0.68444   0.91074   0.45860   1.000
    Zr895   Zr   0.54751   0.95654   0.50396   1.000
    Zr896   Zr   0.73889   0.95984   0.38238   1.000
    Zr897   Zr   0.71343   0.89668   0.41736   1.000
    Zr898   Zr   0.57773   0.94145   0.31492   1.000
    Zr899   Zr   0.65057   0.91093   0.34586   1.000
    Zr900   Zr   0.11423   0.28384   0.94423   1.000
    Zr901   Zr   0.30656   0.35963   0.80348   1.000
    Zr902   Zr   0.31227   0.38220   0.83063   1.000
    Zr903   Zr   0.15936   0.25305   0.96258   1.000
    Zr904   Zr   0.14404   0.29961   0.88804   1.000
    Zr905   Zr   0.20310   0.27199   0.79230   1.000
    Zr906   Zr   0.34166   0.27304   0.85700   1.000
    Zr907   Zr   0.07796   0.33257   0.92138   1.000
    Zr908   Zr   0.42559   0.46103   0.61124   1.000
    Zr909   Zr   0.33327   0.36883   0.77265   1.000
    Zr910   Zr   0.40801   0.44352   0.66370   1.000
    Zr911   Zr   0.30637   0.38370   0.81320   1.000
    Zr912   Zr   0.36082   0.31969   0.84773   1.000
    Zr913   Zr   0.14341   0.25626   0.95352   1.000
    Zr914   Zr   0.09285   0.28098   0.97946   1.000
    Zr915   Zr   0.13396   0.28390   0.90937   1.000
    Zr916   Zr   0.14205   0.32149   0.88647   1.000
    Zr917   Zr   0.20797   0.24927   0.79336   1.000
    Zr918   Zr   0.21218   0.28867   0.77143   1.000
    Zr919   Zr   0.30379   0.33926   0.79140   1.000
    Zr920   Zr   0.25801   0.29346   0.74604   1.000
    Zr921   Zr   0.33112   0.29016   0.86762   1.000
    Zr922   Zr   0.27746   0.35332   0.83264   1.000
    Zr923   Zr   0.08410   0.30855   0.93508   1.000
    Zr924   Zr   0.15737   0.33907   0.90414   1.000
    Zr925   Zr   0.28384   0.11423   0.65770   1.000
    Zr926   Zr   0.35963   0.30656   0.53034   1.000
    Zr927   Zr   0.38220   0.31227   0.47489   1.000
    Zr928   Zr   0.25305   0.15936   0.62501   1.000
    Zr929   Zr   0.29961   0.14404   0.66831   1.000
    Zr930   Zr   0.27199   0.20310   0.73261   1.000
    Zr931   Zr   0.27304   0.34166   0.52830   1.000
    Zr932   Zr   0.33257   0.07796   0.66808   1.000
    Zr933   Zr   0.46103   0.42559   0.50214   1.000
    Zr934   Zr   0.36883   0.33327   0.52525   1.000
    Zr935   Zr   0.44352   0.40801   0.48477   1.000
    Zr936   Zr   0.38370   0.30637   0.49673   1.000
    Zr937   Zr   0.31969   0.36082   0.47176   1.000
    Zr938   Zr   0.25626   0.14341   0.64681   1.000
    Zr939   Zr   0.28098   0.09285   0.64670   1.000
    Zr940   Zr   0.28390   0.13396   0.67277   1.000
    Zr941   Zr   0.32149   0.14205   0.65000   1.000
    Zr942   Zr   0.24927   0.20797   0.74940   1.000
    Zr943   Zr   0.28867   0.21218   0.72771   1.000
    Zr944   Zr   0.33926   0.30379   0.56556   1.000
    Zr945   Zr   0.29346   0.25801   0.70249   1.000
    Zr946   Zr   0.29016   0.33112   0.51111   1.000
    Zr947   Zr   0.35332   0.27746   0.53657   1.000
    Zr948   Zr   0.30855   0.08410   0.67227   1.000
    Zr949   Zr   0.33907   0.15737   0.59943   1.000
    Zr950   Zr   0.65770   0.94423   0.28384   1.000
    Zr951   Zr   0.53034   0.80348   0.35963   1.000
    Zr952   Zr   0.47489   0.83063   0.38220   1.000
    Zr953   Zr   0.62501   0.96258   0.25305   1.000
    Zr954   Zr   0.66831   0.88804   0.29961   1.000
    Zr955   Zr   0.73261   0.79230   0.27199   1.000
    Zr956   Zr   0.52830   0.85700   0.27304   1.000
    Zr957   Zr   0.66808   0.92138   0.33257   1.000
    Zr958   Zr   0.50214   0.61124   0.46103   1.000
    Zr959   Zr   0.52525   0.77265   0.36883   1.000
    Zr960   Zr   0.48477   0.66370   0.44352   1.000
    Zr961   Zr   0.49673   0.81320   0.38370   1.000
    Zr962   Zr   0.47176   0.84773   0.31969   1.000
    Zr963   Zr   0.64681   0.95352   0.25626   1.000
    Zr964   Zr   0.64670   0.97946   0.28098   1.000
    Zr965   Zr   0.67277   0.90937   0.28390   1.000
    Zr966   Zr   0.65000   0.88647   0.32149   1.000
    Zr967   Zr   0.74940   0.79336   0.24927   1.000
    Zr968   Zr   0.72771   0.77143   0.28867   1.000
    Zr969   Zr   0.56556   0.79140   0.33926   1.000
    Zr970   Zr   0.70249   0.74604   0.29346   1.000
    Zr971   Zr   0.51111   0.86762   0.29016   1.000
    Zr972   Zr   0.53657   0.83264   0.35332   1.000
    Zr973   Zr   0.67227   0.93508   0.30855   1.000
    Zr974   Zr   0.59943   0.90414   0.33907   1.000
    Zr975   Zr   0.94423   0.65770   0.11423   1.000
    Zr976   Zr   0.80348   0.53034   0.30656   1.000
    Zr977   Zr   0.83063   0.47489   0.31227   1.000
    Zr978   Zr   0.96258   0.62501   0.15936   1.000
    Zr979   Zr   0.88804   0.66831   0.14404   1.000
    Zr980   Zr   0.79230   0.73261   0.20310   1.000
    Zr981   Zr   0.85700   0.52830   0.34166   1.000
    Zr982   Zr   0.92138   0.66808   0.07796   1.000
    Zr983   Zr   0.61124   0.50214   0.42559   1.000
    Zr984   Zr   0.77265   0.52525   0.33327   1.000
    Zr985   Zr   0.66370   0.48477   0.40801   1.000
    Zr986   Zr   0.81320   0.49673   0.30637   1.000
    Zr987   Zr   0.84773   0.47176   0.36082   1.000
    Zr988   Zr   0.95352   0.64681   0.14341   1.000
    Zr989   Zr   0.97946   0.64670   0.09285   1.000
    Zr990   Zr   0.90937   0.67277   0.13396   1.000
    Zr991   Zr   0.88647   0.65000   0.14205   1.000
    Zr992   Zr   0.79336   0.74940   0.20797   1.000
    Zr993   Zr   0.77143   0.72771   0.21218   1.000
    Zr994   Zr   0.79140   0.56556   0.30379   1.000
    Zr995   Zr   0.74604   0.70249   0.25801   1.000
    Zr996   Zr   0.86762   0.51111   0.33112   1.000
    Zr997   Zr   0.83264   0.53657   0.27746   1.000
    Zr998   Zr   0.93508   0.67227   0.08410   1.000
    Zr999   Zr   0.90414   0.59943   0.15737   1.000
    Zr1000  Zr   0.65770   0.11423   0.94423   1.000
    Zr1001  Zr   0.53034   0.30656   0.80348   1.000
    Zr1002  Zr   0.47489   0.31227   0.83063   1.000
    Zr1003  Zr   0.62501   0.15936   0.96258   1.000
    Zr1004  Zr   0.66831   0.14404   0.88804   1.000
    Zr1005  Zr   0.73261   0.20310   0.79230   1.000
    Zr1006  Zr   0.52830   0.34166   0.85700   1.000
    Zr1007  Zr   0.66808   0.07796   0.92138   1.000
    Zr1008  Zr   0.50214   0.42559   0.61124   1.000
    Zr1009  Zr   0.52525   0.33327   0.77265   1.000
    Zr1010  Zr   0.48477   0.40801   0.66370   1.000
    Zr1011  Zr   0.49673   0.30637   0.81320   1.000
    Zr1012  Zr   0.47176   0.36082   0.84773   1.000
    Zr1013  Zr   0.64681   0.14341   0.95352   1.000
    Zr1014  Zr   0.64670   0.09285   0.97946   1.000
    Zr1015  Zr   0.67277   0.13396   0.90937   1.000
    Zr1016  Zr   0.65000   0.14205   0.88647   1.000
    Zr1017  Zr   0.74940   0.20797   0.79336   1.000
    Zr1018  Zr   0.72771   0.21218   0.77143   1.000
    Zr1019  Zr   0.56556   0.30379   0.79140   1.000
    Zr1020  Zr   0.70249   0.25801   0.74604   1.000
    Zr1021  Zr   0.51111   0.33112   0.86762   1.000
    Zr1022  Zr   0.53657   0.27746   0.83264   1.000
    Zr1023  Zr   0.67227   0.08410   0.93508   1.000
    Zr1024  Zr   0.59943   0.15737   0.90414   1.000
    Zr1025  Zr   0.94423   0.28384   0.65770   1.000
    Zr1026  Zr   0.80348   0.35963   0.53034   1.000
    Zr1027  Zr   0.83063   0.38220   0.47489   1.000
    Zr1028  Zr   0.96258   0.25305   0.62501   1.000
    Zr1029  Zr   0.88804   0.29961   0.66831   1.000
    Zr1030  Zr   0.79230   0.27199   0.73261   1.000
    Zr1031  Zr   0.85700   0.27304   0.52830   1.000
    Zr1032  Zr   0.92138   0.33257   0.66808   1.000
    Zr1033  Zr   0.61124   0.46103   0.50214   1.000
    Zr1034  Zr   0.77265   0.36883   0.52525   1.000
    Zr1035  Zr   0.66370   0.44352   0.48477   1.000
    Zr1036  Zr   0.81320   0.38370   0.49673   1.000
    Zr1037  Zr   0.84773   0.31969   0.47176   1.000
    Zr1038  Zr   0.95352   0.25626   0.64681   1.000
    Zr1039  Zr   0.97946   0.28098   0.64670   1.000
    Zr1040  Zr   0.90937   0.28390   0.67277   1.000
    Zr1041  Zr   0.88647   0.32149   0.65000   1.000
    Zr1042  Zr   0.79336   0.24927   0.74940   1.000
    Zr1043  Zr   0.77143   0.28867   0.72771   1.000
    Zr1044  Zr   0.79140   0.33926   0.56556   1.000
    Zr1045  Zr   0.74604   0.29346   0.70249   1.000
    Zr1046  Zr   0.86762   0.29016   0.51111   1.000
    Zr1047  Zr   0.83264   0.35332   0.53657   1.000
    Zr1048  Zr   0.93508   0.30855   0.67227   1.000
    Zr1049  Zr   0.90414   0.33907   0.59943   1.000
    Zr1050  Zr   0.11423   0.65770   0.28384   1.000
    Zr1051  Zr   0.30656   0.53034   0.35963   1.000
    Zr1052  Zr   0.31227   0.47489   0.38220   1.000
    Zr1053  Zr   0.15936   0.62501   0.25305   1.000
    Zr1054  Zr   0.14404   0.66831   0.29961   1.000
    Zr1055  Zr   0.20310   0.73261   0.27199   1.000
    Zr1056  Zr   0.34166   0.52830   0.27304   1.000
    Zr1057  Zr   0.07796   0.66808   0.33257   1.000
    Zr1058  Zr   0.42559   0.50214   0.46103   1.000
    Zr1059  Zr   0.33327   0.52525   0.36883   1.000
    Zr1060  Zr   0.40801   0.48477   0.44352   1.000
    Zr1061  Zr   0.30637   0.49673   0.38370   1.000
    Zr1062  Zr   0.36082   0.47176   0.31969   1.000
    Zr1063  Zr   0.14341   0.64681   0.25626   1.000
    Zr1064  Zr   0.09285   0.64670   0.28098   1.000
    Zr1065  Zr   0.13396   0.67277   0.28390   1.000
    Zr1066  Zr   0.14205   0.65000   0.32149   1.000
    Zr1067  Zr   0.20797   0.74940   0.24927   1.000
    Zr1068  Zr   0.21218   0.72771   0.28867   1.000
    Zr1069  Zr   0.30379   0.56556   0.33926   1.000
    Zr1070  Zr   0.25801   0.70249   0.29346   1.000
    Zr1071  Zr   0.33112   0.51111   0.29016   1.000
    Zr1072  Zr   0.27746   0.53657   0.35332   1.000
    Zr1073  Zr   0.08410   0.67227   0.30855   1.000
    Zr1074  Zr   0.15737   0.59943   0.33907   1.000
    Zr1075  Zr   0.28384   0.94423   0.11423   1.000
    Zr1076  Zr   0.35963   0.80348   0.30656   1.000
    Zr1077  Zr   0.38220   0.83063   0.31227   1.000
    Zr1078  Zr   0.25305   0.96258   0.15936   1.000
    Zr1079  Zr   0.29961   0.88804   0.14404   1.000
    Zr1080  Zr   0.27199   0.79230   0.20310   1.000
    Zr1081  Zr   0.27304   0.85700   0.34166   1.000
    Zr1082  Zr   0.33257   0.92138   0.07796   1.000
    Zr1083  Zr   0.46103   0.61124   0.42559   1.000
    Zr1084  Zr   0.36883   0.77265   0.33327   1.000
    Zr1085  Zr   0.44352   0.66370   0.40801   1.000
    Zr1086  Zr   0.38370   0.81320   0.30637   1.000
    Zr1087  Zr   0.31969   0.84773   0.36082   1.000
    Zr1088  Zr   0.25626   0.95352   0.14341   1.000
    Zr1089  Zr   0.28098   0.97946   0.09285   1.000
    Zr1090  Zr   0.28390   0.90937   0.13396   1.000
    Zr1091  Zr   0.32149   0.88647   0.14205   1.000
    Zr1092  Zr   0.24927   0.79336   0.20797   1.000
    Zr1093  Zr   0.28867   0.77143   0.21218   1.000
    Zr1094  Zr   0.33926   0.79140   0.30379   1.000
    Zr1095  Zr   0.29346   0.74604   0.25801   1.000
    Zr1096  Zr   0.29016   0.86762   0.33112   1.000
    Zr1097  Zr   0.35332   0.83264   0.27746   1.000
    Zr1098  Zr   0.30855   0.93508   0.08410   1.000
    Zr1099  Zr   0.33907   0.90414   0.15737   1.000
    Zr1100  Zr   0.28384   0.65770   0.94423   1.000
    Zr1101  Zr   0.35963   0.53034   0.80348   1.000
    Zr1102  Zr   0.38220   0.47489   0.83063   1.000
    Zr1103  Zr   0.25305   0.62501   0.96258   1.000
    Zr1104  Zr   0.29961   0.66831   0.88804   1.000
    Zr1105  Zr   0.27199   0.73261   0.79230   1.000
    Zr1106  Zr   0.27304   0.52830   0.85700   1.000
    Zr1107  Zr   0.33257   0.66808   0.92138   1.000
    Zr1108  Zr   0.46103   0.50214   0.61124   1.000
    Zr1109  Zr   0.36883   0.52525   0.77265   1.000
    Zr1110  Zr   0.44352   0.48477   0.66370   1.000
    Zr1111  Zr   0.38370   0.49673   0.81320   1.000
    Zr1112  Zr   0.31969   0.47176   0.84773   1.000
    Zr1113  Zr   0.25626   0.64681   0.95352   1.000
    Zr1114  Zr   0.28098   0.64670   0.97946   1.000
    Zr1115  Zr   0.28390   0.67277   0.90937   1.000
    Zr1116  Zr   0.32149   0.65000   0.88647   1.000
    Zr1117  Zr   0.24927   0.74940   0.79336   1.000
    Zr1118  Zr   0.28867   0.72771   0.77143   1.000
    Zr1119  Zr   0.33926   0.56556   0.79140   1.000
    Zr1120  Zr   0.29346   0.70249   0.74604   1.000
    Zr1121  Zr   0.29016   0.51111   0.86762   1.000
    Zr1122  Zr   0.35332   0.53657   0.83264   1.000
    Zr1123  Zr   0.30855   0.67227   0.93508   1.000
    Zr1124  Zr   0.33907   0.59943   0.90414   1.000
    Zr1125  Zr   0.11423   0.94423   0.65770   1.000
    Zr1126  Zr   0.30656   0.80348   0.53034   1.000
    Zr1127  Zr   0.31227   0.83063   0.47489   1.000
    Zr1128  Zr   0.15936   0.96258   0.62501   1.000
    Zr1129  Zr   0.14404   0.88804   0.66831   1.000
    Zr1130  Zr   0.20310   0.79230   0.73261   1.000
    Zr1131  Zr   0.34166   0.85700   0.52830   1.000
    Zr1132  Zr   0.07796   0.92138   0.66808   1.000
    Zr1133  Zr   0.42559   0.61124   0.50214   1.000
    Zr1134  Zr   0.33327   0.77265   0.52525   1.000
    Zr1135  Zr   0.40801   0.66370   0.48477   1.000
    Zr1136  Zr   0.30637   0.81320   0.49673   1.000
    Zr1137  Zr   0.36082   0.84773   0.47176   1.000
    Zr1138  Zr   0.14341   0.95352   0.64681   1.000
    Zr1139  Zr   0.09285   0.97946   0.64670   1.000
    Zr1140  Zr   0.13396   0.90937   0.67277   1.000
    Zr1141  Zr   0.14205   0.88647   0.65000   1.000
    Zr1142  Zr   0.20797   0.79336   0.74940   1.000
    Zr1143  Zr   0.21218   0.77143   0.72771   1.000
    Zr1144  Zr   0.30379   0.79140   0.56556   1.000
    Zr1145  Zr   0.25801   0.74604   0.70249   1.000
    Zr1146  Zr   0.33112   0.86762   0.51111   1.000
    Zr1147  Zr   0.27746   0.83264   0.53657   1.000
    Zr1148  Zr   0.08410   0.93508   0.67227   1.000
    Zr1149  Zr   0.15737   0.90414   0.59943   1.000
    Zr1150  Zr   0.94423   0.11423   0.28384   1.000
    Zr1151  Zr   0.80348   0.30656   0.35963   1.000
    Zr1152  Zr   0.83063   0.31227   0.38220   1.000
    Zr1153  Zr   0.96258   0.15936   0.25305   1.000
    Zr1154  Zr   0.88804   0.14404   0.29961   1.000
    Zr1155  Zr   0.79230   0.20310   0.27199   1.000
    Zr1156  Zr   0.85700   0.34166   0.27304   1.000
    Zr1157  Zr   0.92138   0.07796   0.33257   1.000
    Zr1158  Zr   0.61124   0.42559   0.46103   1.000
    Zr1159  Zr   0.77265   0.33327   0.36883   1.000
    Zr1160  Zr   0.66370   0.40801   0.44352   1.000
    Zr1161  Zr   0.81320   0.30637   0.38370   1.000
    Zr1162  Zr   0.84773   0.36082   0.31969   1.000
    Zr1163  Zr   0.95352   0.14341   0.25626   1.000
    Zr1164  Zr   0.97946   0.09285   0.28098   1.000
    Zr1165  Zr   0.90937   0.13396   0.28390   1.000
    Zr1166  Zr   0.88647   0.14205   0.32149   1.000
    Zr1167  Zr   0.79336   0.20797   0.24927   1.000
    Zr1168  Zr   0.77143   0.21218   0.28867   1.000
    Zr1169  Zr   0.79140   0.30379   0.33926   1.000
    Zr1170  Zr   0.74604   0.25801   0.29346   1.000
    Zr1171  Zr   0.86762   0.33112   0.29016   1.000
    Zr1172  Zr   0.83264   0.27746   0.35332   1.000
    Zr1173  Zr   0.93508   0.08410   0.30855   1.000
    Zr1174  Zr   0.90414   0.15737   0.33907   1.000
    Zr1175  Zr   0.65770   0.28384   0.11423   1.000
    Zr1176  Zr   0.53034   0.35963   0.30656   1.000
    Zr1177  Zr   0.47489   0.38220   0.31227   1.000
    Zr1178  Zr   0.62501   0.25305   0.15936   1.000
    Zr1179  Zr   0.66831   0.29961   0.14404   1.000
    Zr1180  Zr   0.73261   0.27199   0.20310   1.000
    Zr1181  Zr   0.52830   0.27304   0.34166   1.000
    Zr1182  Zr   0.66808   0.33257   0.07796   1.000
    Zr1183  Zr   0.50214   0.46103   0.42559   1.000
    Zr1184  Zr   0.52525   0.36883   0.33327   1.000
    Zr1185  Zr   0.48477   0.44352   0.40801   1.000
    Zr1186  Zr   0.49673   0.38370   0.30637   1.000
    Zr1187  Zr   0.47176   0.31969   0.36082   1.000
    Zr1188  Zr   0.64681   0.25626   0.14341   1.000
    Zr1189  Zr   0.64670   0.28098   0.09285   1.000
    Zr1190  Zr   0.67277   0.28390   0.13396   1.000
    Zr1191  Zr   0.65000   0.32149   0.14205   1.000
    Zr1192  Zr   0.74940   0.24927   0.20797   1.000
    Zr1193  Zr   0.72771   0.28867   0.21218   1.000
    Zr1194  Zr   0.56556   0.33926   0.30379   1.000
    Zr1195  Zr   0.70249   0.29346   0.25801   1.000
    Zr1196  Zr   0.51111   0.29016   0.33112   1.000
    Zr1197  Zr   0.53657   0.35332   0.27746   1.000
    Zr1198  Zr   0.67227   0.30855   0.08410   1.000
    Zr1199  Zr   0.59943   0.33907   0.15737   1.000
    Zr1200  Zr   0.41880   0.47185   0.47185   1.000
    Zr1201  Zr   0.47185   0.41880   0.63750   1.000
    Zr1202  Zr   0.47185   0.63750   0.41880   1.000
    Zr1203  Zr   0.63750   0.47185   0.47185   1.000
    Zr1204  Zr   0.47185   0.41880   0.47185   1.000
    Zr1205  Zr   0.63750   0.47185   0.41880   1.000
    Zr1206  Zr   0.41880   0.47185   0.63750   1.000
    Zr1207  Zr   0.47185   0.63750   0.47185   1.000
    Zr1208  Zr   0.47185   0.47185   0.41880   1.000
    Zr1209  Zr   0.41880   0.63750   0.47185   1.000
    Zr1210  Zr   0.63750   0.41880   0.47185   1.000
    Zr1211  Zr   0.47185   0.47185   0.63750   1.000
    Zr1212  Zr   0.83120   0.77815   0.61250   1.000
    Zr1213  Zr   0.77815   0.83120   0.77815   1.000
    Zr1214  Zr   0.77815   0.61250   0.77815   1.000
    Zr1215  Zr   0.61250   0.77815   0.83120   1.000
    Zr1216  Zr   0.77815   0.83120   0.61250   1.000
    Zr1217  Zr   0.61250   0.77815   0.77815   1.000
    Zr1218  Zr   0.83120   0.77815   0.77815   1.000
    Zr1219  Zr   0.77815   0.61250   0.83120   1.000
    Zr1220  Zr   0.77815   0.77815   0.61250   1.000
    Zr1221  Zr   0.83120   0.61250   0.77815   1.000
    Zr1222  Zr   0.61250   0.83120   0.77815   1.000
    Zr1223  Zr   0.77815   0.77815   0.83120   1.000
    Zr1224  Zr   0.12500   0.34065   0.62500   1.000
    Zr1225  Zr   0.12500   0.31008   0.62500   1.000
    Zr1226  Zr   0.34065   0.12500   0.90935   1.000
    Zr1227  Zr   0.31008   0.12500   0.93992   1.000
    Zr1228  Zr   0.62500   0.90935   0.12500   1.000
    Zr1229  Zr   0.62500   0.93992   0.12500   1.000
    Zr1230  Zr   0.90935   0.62500   0.34065   1.000
    Zr1231  Zr   0.93992   0.62500   0.31008   1.000
    Zr1232  Zr   0.62500   0.12500   0.34065   1.000
    Zr1233  Zr   0.62500   0.12500   0.31008   1.000
    Zr1234  Zr   0.90935   0.34065   0.12500   1.000
    Zr1235  Zr   0.93992   0.31008   0.12500   1.000
    Zr1236  Zr   0.12500   0.62500   0.90935   1.000
    Zr1237  Zr   0.12500   0.62500   0.93992   1.000
    Zr1238  Zr   0.34065   0.90935   0.62500   1.000
    Zr1239  Zr   0.31008   0.93992   0.62500   1.000
    Zr1240  Zr   0.34065   0.62500   0.12500   1.000
    Zr1241  Zr   0.31008   0.62500   0.12500   1.000
    Zr1242  Zr   0.12500   0.90935   0.34065   1.000
    Zr1243  Zr   0.12500   0.93992   0.31008   1.000
    Zr1244  Zr   0.90935   0.12500   0.62500   1.000
    Zr1245  Zr   0.93992   0.12500   0.62500   1.000
    Zr1246  Zr   0.62500   0.34065   0.90935   1.000
    Zr1247  Zr   0.62500   0.31008   0.93992   1.000
    Zr1248  Zr   0.12500   0.90935   0.62500   1.000
    Zr1249  Zr   0.12500   0.93992   0.62500   1.000
    Zr1250  Zr   0.90935   0.12500   0.34065   1.000
    Zr1251  Zr   0.93992   0.12500   0.31008   1.000
    Zr1252  Zr   0.62500   0.34065   0.12500   1.000
    Zr1253  Zr   0.62500   0.31008   0.12500   1.000
    Zr1254  Zr   0.34065   0.62500   0.90935   1.000
    Zr1255  Zr   0.31008   0.62500   0.93992   1.000
    Zr1256  Zr   0.62500   0.12500   0.90935   1.000
    Zr1257  Zr   0.62500   0.12500   0.93992   1.000
    Zr1258  Zr   0.34065   0.90935   0.12500   1.000
    Zr1259  Zr   0.31008   0.93992   0.12500   1.000
    Zr1260  Zr   0.12500   0.62500   0.34065   1.000
    Zr1261  Zr   0.12500   0.62500   0.31008   1.000
    Zr1262  Zr   0.90935   0.34065   0.62500   1.000
    Zr1263  Zr   0.93992   0.31008   0.62500   1.000
    Zr1264  Zr   0.90935   0.62500   0.12500   1.000
    Zr1265  Zr   0.93992   0.62500   0.12500   1.000
    Zr1266  Zr   0.12500   0.34065   0.90935   1.000
    Zr1267  Zr   0.12500   0.31008   0.93992   1.000
    Zr1268  Zr   0.34065   0.12500   0.62500   1.000
    Zr1269  Zr   0.31008   0.12500   0.62500   1.000
    Zr1270  Zr   0.62500   0.90935   0.34065   1.000
    Zr1271  Zr   0.62500   0.93992   0.31008   1.000
    Zr1272  Zr   0.22983   0.22983   0.77017   1.000
    Zr1273  Zr   0.25157   0.25157   0.74843   1.000
    Zr1274  Zr   0.77017   0.77017   0.22983   1.000
    Zr1275  Zr   0.74843   0.74843   0.25157   1.000
    Zr1276  Zr   0.77017   0.22983   0.22983   1.000
    Zr1277  Zr   0.74843   0.25157   0.25157   1.000
    Zr1278  Zr   0.22983   0.77017   0.77017   1.000
    Zr1279  Zr   0.25157   0.74843   0.74843   1.000
    Zr1280  Zr   0.22983   0.77017   0.22983   1.000
    Zr1281  Zr   0.25157   0.74843   0.25157   1.000
    Zr1282  Zr   0.77017   0.22983   0.77017   1.000
    Zr1283  Zr   0.74843   0.25157   0.74843   1.000
    Zr1284  Zr   0.02017   0.02017   0.47983   1.000
    Zr1285  Zr   0.99843   0.99843   0.50157   1.000
    Zr1286  Zr   0.47983   0.47983   0.02017   1.000
    Zr1287  Zr   0.50157   0.50157   0.99843   1.000
    Zr1288  Zr   0.47983   0.02017   0.47983   1.000
    Zr1289  Zr   0.50157   0.99843   0.50157   1.000
    Zr1290  Zr   0.02017   0.47983   0.02017   1.000
    Zr1291  Zr   0.99843   0.50157   0.99843   1.000
    Zr1292  Zr   0.02017   0.47983   0.47983   1.000
    Zr1293  Zr   0.99843   0.50157   0.50157   1.000
    Zr1294  Zr   0.47983   0.02017   0.02017   1.000
    Zr1295  Zr   0.50157   0.99843   0.99843   1.000
    Zr1296  Zr   0.23592   0.28896   0.73756   1.000
    Zr1297  Zr   0.28896   0.23592   0.73756   1.000
    Zr1298  Zr   0.73756   0.73756   0.23592   1.000
    Zr1299  Zr   0.73756   0.73756   0.28896   1.000
    Zr1300  Zr   0.73756   0.23592   0.28896   1.000
    Zr1301  Zr   0.73756   0.28896   0.23592   1.000
    Zr1302  Zr   0.23592   0.73756   0.73756   1.000
    Zr1303  Zr   0.28896   0.73756   0.73756   1.000
    Zr1304  Zr   0.28896   0.73756   0.23592   1.000
    Zr1305  Zr   0.23592   0.73756   0.28896   1.000
    Zr1306  Zr   0.73756   0.23592   0.73756   1.000
    Zr1307  Zr   0.73756   0.28896   0.73756   1.000
    Zr1308  Zr   0.01408   0.96104   0.51244   1.000
    Zr1309  Zr   0.96104   0.01408   0.51244   1.000
    Zr1310  Zr   0.51244   0.51244   0.96104   1.000
    Zr1311  Zr   0.51244   0.51244   0.01408   1.000
    Zr1312  Zr   0.51244   0.01408   0.51244   1.000
    Zr1313  Zr   0.51244   0.96104   0.51244   1.000
    Zr1314  Zr   0.01408   0.51244   0.96104   1.000
    Zr1315  Zr   0.96104   0.51244   0.01408   1.000
    Zr1316  Zr   0.96104   0.51244   0.51244   1.000
    Zr1317  Zr   0.01408   0.51244   0.51244   1.000
    Zr1318  Zr   0.51244   0.01408   0.96104   1.000
    Zr1319  Zr   0.51244   0.96104   0.01408   1.000
    Zr1320  Zr   0.32574   0.32574   0.49285   1.000
    Zr1321  Zr   0.35723   0.35723   0.52298   1.000
    Zr1322  Zr   0.41918   0.41918   0.48908   1.000
    Zr1323  Zr   0.31762   0.31762   0.57750   1.000
    Zr1324  Zr   0.28000   0.28000   0.69049   1.000
    Zr1325  Zr   0.33063   0.33063   0.51787   1.000
    Zr1326  Zr   0.32574   0.32574   0.85566   1.000
    Zr1327  Zr   0.35723   0.35723   0.76256   1.000
    Zr1328  Zr   0.41918   0.41918   0.67257   1.000
    Zr1329  Zr   0.31762   0.31762   0.78725   1.000
    Zr1330  Zr   0.28000   0.28000   0.74951   1.000
    Zr1331  Zr   0.33063   0.33063   0.82086   1.000
    Zr1332  Zr   0.49285   0.85566   0.32574   1.000
    Zr1333  Zr   0.52298   0.76256   0.35723   1.000
    Zr1334  Zr   0.48908   0.67257   0.41918   1.000
    Zr1335  Zr   0.57750   0.78725   0.31762   1.000
    Zr1336  Zr   0.69049   0.74951   0.28000   1.000
    Zr1337  Zr   0.51787   0.82086   0.33063   1.000
    Zr1338  Zr   0.85566   0.49285   0.32574   1.000
    Zr1339  Zr   0.76256   0.52298   0.35723   1.000
    Zr1340  Zr   0.67257   0.48908   0.41918   1.000
    Zr1341  Zr   0.78725   0.57750   0.31762   1.000
    Zr1342  Zr   0.74951   0.69049   0.28000   1.000
    Zr1343  Zr   0.82086   0.51787   0.33063   1.000
    Zr1344  Zr   0.49285   0.32574   0.32574   1.000
    Zr1345  Zr   0.52298   0.35723   0.35723   1.000
    Zr1346  Zr   0.48908   0.41918   0.41918   1.000
    Zr1347  Zr   0.57750   0.31762   0.31762   1.000
    Zr1348  Zr   0.69049   0.28000   0.28000   1.000
    Zr1349  Zr   0.51787   0.33063   0.33063   1.000
    Zr1350  Zr   0.85566   0.32574   0.32574   1.000
    Zr1351  Zr   0.76256   0.35723   0.35723   1.000
    Zr1352  Zr   0.67257   0.41918   0.41918   1.000
    Zr1353  Zr   0.78725   0.31762   0.31762   1.000
    Zr1354  Zr   0.74951   0.28000   0.28000   1.000
    Zr1355  Zr   0.82086   0.33063   0.33063   1.000
    Zr1356  Zr   0.32574   0.49285   0.85566   1.000
    Zr1357  Zr   0.35723   0.52298   0.76256   1.000
    Zr1358  Zr   0.41918   0.48908   0.67257   1.000
    Zr1359  Zr   0.31762   0.57750   0.78725   1.000
    Zr1360  Zr   0.28000   0.69049   0.74951   1.000
    Zr1361  Zr   0.33063   0.51787   0.82086   1.000
    Zr1362  Zr   0.32574   0.85566   0.49285   1.000
    Zr1363  Zr   0.35723   0.76256   0.52298   1.000
    Zr1364  Zr   0.41918   0.67257   0.48908   1.000
    Zr1365  Zr   0.31762   0.78725   0.57750   1.000
    Zr1366  Zr   0.28000   0.74951   0.69049   1.000
    Zr1367  Zr   0.33063   0.82086   0.51787   1.000
    Zr1368  Zr   0.32574   0.49285   0.32574   1.000
    Zr1369  Zr   0.35723   0.52298   0.35723   1.000
    Zr1370  Zr   0.41918   0.48908   0.41918   1.000
    Zr1371  Zr   0.31762   0.57750   0.31762   1.000
    Zr1372  Zr   0.28000   0.69049   0.28000   1.000
    Zr1373  Zr   0.33063   0.51787   0.33063   1.000
    Zr1374  Zr   0.32574   0.85566   0.32574   1.000
    Zr1375  Zr   0.35723   0.76256   0.35723   1.000
    Zr1376  Zr   0.41918   0.67257   0.41918   1.000
    Zr1377  Zr   0.31762   0.78725   0.31762   1.000
    Zr1378  Zr   0.28000   0.74951   0.28000   1.000
    Zr1379  Zr   0.33063   0.82086   0.33063   1.000
    Zr1380  Zr   0.85566   0.32574   0.49285   1.000
    Zr1381  Zr   0.76256   0.35723   0.52298   1.000
    Zr1382  Zr   0.67257   0.41918   0.48908   1.000
    Zr1383  Zr   0.78725   0.31762   0.57750   1.000
    Zr1384  Zr   0.74951   0.28000   0.69049   1.000
    Zr1385  Zr   0.82086   0.33063   0.51787   1.000
    Zr1386  Zr   0.49285   0.32574   0.85566   1.000
    Zr1387  Zr   0.52298   0.35723   0.76256   1.000
    Zr1388  Zr   0.48908   0.41918   0.67257   1.000
    Zr1389  Zr   0.57750   0.31762   0.78725   1.000
    Zr1390  Zr   0.69049   0.28000   0.74951   1.000
    Zr1391  Zr   0.51787   0.33063   0.82086   1.000
    Zr1392  Zr   0.92426   0.92426   0.39434   1.000
    Zr1393  Zr   0.89277   0.89277   0.48744   1.000
    Zr1394  Zr   0.83082   0.83082   0.57743   1.000
    Zr1395  Zr   0.93238   0.93238   0.46275   1.000
    Zr1396  Zr   0.97000   0.97000   0.50049   1.000
    Zr1397  Zr   0.91937   0.91937   0.42914   1.000
    Zr1398  Zr   0.92426   0.92426   0.75715   1.000
    Zr1399  Zr   0.89277   0.89277   0.72702   1.000
    Zr1400  Zr   0.83082   0.83082   0.76092   1.000
    Zr1401  Zr   0.93238   0.93238   0.67250   1.000
    Zr1402  Zr   0.97000   0.97000   0.55951   1.000
    Zr1403  Zr   0.91937   0.91937   0.73213   1.000
    Zr1404  Zr   0.75715   0.39434   0.92426   1.000
    Zr1405  Zr   0.72702   0.48744   0.89277   1.000
    Zr1406  Zr   0.76092   0.57743   0.83082   1.000
    Zr1407  Zr   0.67250   0.46275   0.93238   1.000
    Zr1408  Zr   0.55951   0.50049   0.97000   1.000
    Zr1409  Zr   0.73213   0.42914   0.91937   1.000
    Zr1410  Zr   0.39434   0.75715   0.92426   1.000
    Zr1411  Zr   0.48744   0.72702   0.89277   1.000
    Zr1412  Zr   0.57743   0.76092   0.83082   1.000
    Zr1413  Zr   0.46275   0.67250   0.93238   1.000
    Zr1414  Zr   0.50049   0.55951   0.97000   1.000
    Zr1415  Zr   0.42914   0.73213   0.91937   1.000
    Zr1416  Zr   0.75715   0.92426   0.39434   1.000
    Zr1417  Zr   0.72702   0.89277   0.48744   1.000
    Zr1418  Zr   0.76092   0.83082   0.57743   1.000
    Zr1419  Zr   0.67250   0.93238   0.46275   1.000
    Zr1420  Zr   0.55951   0.97000   0.50049   1.000
    Zr1421  Zr   0.73213   0.91937   0.42914   1.000
    Zr1422  Zr   0.39434   0.92426   0.75715   1.000
    Zr1423  Zr   0.48744   0.89277   0.72702   1.000
    Zr1424  Zr   0.57743   0.83082   0.76092   1.000
    Zr1425  Zr   0.46275   0.93238   0.67250   1.000
    Zr1426  Zr   0.50049   0.97000   0.55951   1.000
    Zr1427  Zr   0.42914   0.91937   0.73213   1.000
    Zr1428  Zr   0.92426   0.75715   0.92426   1.000
    Zr1429  Zr   0.89277   0.72702   0.89277   1.000
    Zr1430  Zr   0.83082   0.76092   0.83082   1.000
    Zr1431  Zr   0.93238   0.67250   0.93238   1.000
    Zr1432  Zr   0.97000   0.55951   0.97000   1.000
    Zr1433  Zr   0.91937   0.73213   0.91937   1.000
    Zr1434  Zr   0.92426   0.39434   0.92426   1.000
    Zr1435  Zr   0.89277   0.48744   0.89277   1.000
    Zr1436  Zr   0.83082   0.57743   0.83082   1.000
    Zr1437  Zr   0.93238   0.46275   0.93238   1.000
    Zr1438  Zr   0.97000   0.50049   0.97000   1.000
    Zr1439  Zr   0.91937   0.42914   0.91937   1.000
    Zr1440  Zr   0.92426   0.75715   0.39434   1.000
    Zr1441  Zr   0.89277   0.72702   0.48744   1.000
    Zr1442  Zr   0.83082   0.76092   0.57743   1.000
    Zr1443  Zr   0.93238   0.67250   0.46275   1.000
    Zr1444  Zr   0.97000   0.55951   0.50049   1.000
    Zr1445  Zr   0.91937   0.73213   0.42914   1.000
    Zr1446  Zr   0.92426   0.39434   0.75715   1.000
    Zr1447  Zr   0.89277   0.48744   0.72702   1.000
    Zr1448  Zr   0.83082   0.57743   0.76092   1.000
    Zr1449  Zr   0.93238   0.46275   0.67250   1.000
    Zr1450  Zr   0.97000   0.50049   0.55951   1.000
    Zr1451  Zr   0.91937   0.42914   0.73213   1.000
    Zr1452  Zr   0.39434   0.92426   0.92426   1.000
    Zr1453  Zr   0.48744   0.89277   0.89277   1.000
    Zr1454  Zr   0.57743   0.83082   0.83082   1.000
    Zr1455  Zr   0.46275   0.93238   0.93238   1.000
    Zr1456  Zr   0.50049   0.97000   0.97000   1.000
    Zr1457  Zr   0.42914   0.91937   0.91937   1.000
    Zr1458  Zr   0.75715   0.92426   0.92426   1.000
    Zr1459  Zr   0.72702   0.89277   0.89277   1.000
    Zr1460  Zr   0.76092   0.83082   0.83082   1.000
    Zr1461  Zr   0.67250   0.93238   0.93238   1.000
    Zr1462  Zr   0.55951   0.97000   0.97000   1.000
    Zr1463  Zr   0.73213   0.91937   0.91937   1.000
    Zr1464  Zr   0.44280   0.44280   0.51229   1.000
    Zr1465  Zr   0.44280   0.44280   0.60211   1.000
    Zr1466  Zr   0.51229   0.60211   0.44280   1.000
    Zr1467  Zr   0.60211   0.51229   0.44280   1.000
    Zr1468  Zr   0.51229   0.44280   0.44280   1.000
    Zr1469  Zr   0.60211   0.44280   0.44280   1.000
    Zr1470  Zr   0.44280   0.51229   0.60211   1.000
    Zr1471  Zr   0.44280   0.60211   0.51229   1.000
    Zr1472  Zr   0.44280   0.51229   0.44280   1.000
    Zr1473  Zr   0.44280   0.60211   0.44280   1.000
    Zr1474  Zr   0.60211   0.44280   0.51229   1.000
    Zr1475  Zr   0.51229   0.44280   0.60211   1.000
    Zr1476  Zr   0.80720   0.80720   0.64789   1.000
    Zr1477  Zr   0.80720   0.80720   0.73771   1.000
    Zr1478  Zr   0.73771   0.64789   0.80720   1.000
    Zr1479  Zr   0.64789   0.73771   0.80720   1.000
    Zr1480  Zr   0.73771   0.80720   0.64789   1.000
    Zr1481  Zr   0.64789   0.80720   0.73771   1.000
    Zr1482  Zr   0.80720   0.73771   0.80720   1.000
    Zr1483  Zr   0.80720   0.64789   0.80720   1.000
    Zr1484  Zr   0.80720   0.73771   0.64789   1.000
    Zr1485  Zr   0.80720   0.64789   0.73771   1.000
    Zr1486  Zr   0.64789   0.80720   0.80720   1.000
    Zr1487  Zr   0.73771   0.80720   0.80720   1.000
    Zr1488  Zr   0.45414   0.45414   0.45414   1.000
    Zr1489  Zr   0.45414   0.45414   0.63759   1.000
    Zr1490  Zr   0.45414   0.63759   0.45414   1.000
    Zr1491  Zr   0.63759   0.45414   0.45414   1.000
    Zr1492  Zr   0.79586   0.79586   0.61241   1.000
    Zr1493  Zr   0.79586   0.79586   0.79586   1.000
    Zr1494  Zr   0.79586   0.61241   0.79586   1.000
    Zr1495  Zr   0.61241   0.79586   0.79586   1.000
    O1496   O    0.46824   0.49022   0.01045   1.000
    O1497   O    0.45717   0.50900   0.98937   1.000
    O1498   O    0.03110   0.46824   0.01045   1.000
    O1499   O    0.04446   0.45717   0.98937   1.000
    O1500   O    0.46824   0.03110   0.01045   1.000
    O1501   O    0.45717   0.04446   0.98937   1.000
    O1502   O    0.49022   0.03110   0.01045   1.000
    O1503   O    0.50900   0.04446   0.98937   1.000
    O1504   O    0.49022   0.46824   0.01045   1.000
    O1505   O    0.50900   0.45717   0.98937   1.000
    O1506   O    0.03110   0.49022   0.01045   1.000
    O1507   O    0.04446   0.50900   0.98937   1.000
    O1508   O    0.49551   0.96118   0.02595   1.000
    O1509   O    0.51737   0.96118   0.02595   1.000
    O1510   O    0.50820   0.95879   0.00304   1.000
    O1511   O    0.52998   0.95879   0.00304   1.000
    O1512   O    0.50700   0.97974   0.00626   1.000
    O1513   O    0.96118   0.51737   0.02595   1.000
    O1514   O    0.96119   0.49551   0.02595   1.000
    O1515   O    0.95879   0.50820   0.00304   1.000
    O1516   O    0.95879   0.52997   0.00304   1.000
    O1517   O    0.97974   0.50701   0.00626   1.000
    O1518   O    0.49550   0.51737   0.02595   1.000
    O1519   O    0.51737   0.49551   0.02595   1.000
    O1520   O    0.52997   0.50820   0.00304   1.000
    O1521   O    0.50820   0.52997   0.00304   1.000
    O1522   O    0.50701   0.50701   0.00626   1.000
    O1523   O    0.49021   0.46823   0.03110   1.000
    O1524   O    0.46824   0.49022   0.03110   1.000
    O1525   O    0.01045   0.46823   0.03110   1.000
    O1526   O    0.01045   0.49022   0.03110   1.000
    O1527   O    0.49022   0.01045   0.03110   1.000
    O1528   O    0.46823   0.01045   0.03110   1.000
    O1529   O    0.46813   0.51984   0.04236   1.000
    O1530   O    0.96967   0.51984   0.04236   1.000
    O1531   O    0.51984   0.46813   0.04236   1.000
    O1532   O    0.46814   0.96967   0.04236   1.000
    O1533   O    0.51984   0.96967   0.04236   1.000
    O1534   O    0.96967   0.46813   0.04236   1.000
    O1535   O    0.50900   0.45717   0.04446   1.000
    O1536   O    0.50900   0.98937   0.04446   1.000
    O1537   O    0.98937   0.45717   0.04446   1.000
    O1538   O    0.45717   0.50900   0.04446   1.000
    O1539   O    0.98937   0.50900   0.04446   1.000
    O1540   O    0.45717   0.98937   0.04446   1.000
    O1541   O    0.67017   0.92823   0.08103   1.000
    O1542   O    0.65933   0.91615   0.08530   1.000
    O1543   O    0.67017   0.32056   0.08103   1.000
    O1544   O    0.65933   0.33921   0.08530   1.000
    O1545   O    0.92823   0.67018   0.08103   1.000
    O1546   O    0.91615   0.65933   0.08530   1.000
    O1547   O    0.92823   0.32056   0.08103   1.000
    O1548   O    0.91615   0.33921   0.08530   1.000
    O1549   O    0.32056   0.67018   0.08103   1.000
    O1550   O    0.33921   0.65933   0.08530   1.000
    O1551   O    0.32056   0.92823   0.08103   1.000
    O1552   O    0.33921   0.91615   0.08530   1.000
    O1553   O    0.29620   0.93965   0.09917   1.000
    O1554   O    0.66498   0.29620   0.09917   1.000
    O1555   O    0.93965   0.66499   0.09917   1.000
    O1556   O    0.29619   0.66499   0.09917   1.000
    O1557   O    0.93965   0.29620   0.09917   1.000
    O1558   O    0.66498   0.93965   0.09917   1.000
    O1559   O    0.28420   0.98820   0.09175   1.000
    O1560   O    0.29195   0.99534   0.09862   1.000
    O1561   O    0.28420   0.63584   0.09175   1.000
    O1562   O    0.29195   0.61409   0.09862   1.000
    O1563   O    0.63585   0.98820   0.09175   1.000
    O1564   O    0.61409   0.99534   0.09862   1.000
    O1565   O    0.98821   0.28420   0.09175   1.000
    O1566   O    0.99535   0.29195   0.09862   1.000
    O1567   O    0.63584   0.28420   0.09175   1.000
    O1568   O    0.61409   0.29195   0.09862   1.000
    O1569   O    0.98821   0.63584   0.09175   1.000
    O1570   O    0.99534   0.61409   0.09862   1.000
    O1571   O    0.34326   0.63778   0.10882   1.000
    O1572   O    0.63779   0.34325   0.10882   1.000
    O1573   O    0.34325   0.91014   0.10882   1.000
    O1574   O    0.91014   0.63778   0.10882   1.000
    O1575   O    0.63778   0.91014   0.10882   1.000
    O1576   O    0.91014   0.34325   0.10882   1.000
    O1577   O    0.96184   0.65220   0.10354   1.000
    O1578   O    0.28241   0.65220   0.10354   1.000
    O1579   O    0.65220   0.96184   0.10354   1.000
    O1580   O    0.65220   0.28241   0.10354   1.000
    O1581   O    0.28241   0.96184   0.10354   1.000
    O1582   O    0.96184   0.28241   0.10354   1.000
    O1583   O    0.36274   0.93945   0.10696   1.000
    O1584   O    0.35129   0.95825   0.11100   1.000
    O1585   O    0.59085   0.93945   0.10696   1.000
    O1586   O    0.57946   0.95825   0.11100   1.000
    O1587   O    0.59085   0.36274   0.10696   1.000
    O1588   O    0.57946   0.35129   0.11100   1.000
    O1589   O    0.93945   0.36274   0.10696   1.000
    O1590   O    0.95824   0.35129   0.11100   1.000
    O1591   O    0.36275   0.59085   0.10696   1.000
    O1592   O    0.35130   0.57946   0.11100   1.000
    O1593   O    0.93945   0.59085   0.10696   1.000
    O1594   O    0.95824   0.57946   0.11100   1.000
    O1595   O    0.30113   0.97995   0.12118   1.000
    O1596   O    0.97995   0.30113   0.12118   1.000
    O1597   O    0.30113   0.59774   0.12118   1.000
    O1598   O    0.59774   0.30113   0.12118   1.000
    O1599   O    0.97995   0.59774   0.12118   1.000
    O1600   O    0.59774   0.97995   0.12118   1.000
    O1601   O    0.35209   0.91893   0.11648   1.000
    O1602   O    0.61250   0.35209   0.11648   1.000
    O1603   O    0.91893   0.35209   0.11648   1.000
    O1604   O    0.61250   0.91893   0.11648   1.000
    O1605   O    0.91893   0.61250   0.11648   1.000
    O1606   O    0.35209   0.61250   0.11648   1.000
    O1607   O    0.92680   0.28387   0.12410   1.000
    O1608   O    0.94887   0.27005   0.12882   1.000
    O1609   O    0.28387   0.92680   0.12410   1.000
    O1610   O    0.27005   0.94888   0.12882   1.000
    O1611   O    0.28387   0.66524   0.12410   1.000
    O1612   O    0.27005   0.65226   0.12882   1.000
    O1613   O    0.66524   0.92680   0.12410   1.000
    O1614   O    0.65226   0.94888   0.12882   1.000
    O1615   O    0.92680   0.66524   0.12410   1.000
    O1616   O    0.94888   0.65226   0.12882   1.000
    O1617   O    0.64135   0.29696   0.11962   1.000
    O1618   O    0.66524   0.28387   0.12410   1.000
    O1619   O    0.65225   0.27005   0.12882   1.000
    O1620   O    0.32320   0.58476   0.12591   1.000
    O1621   O    0.96613   0.58476   0.12591   1.000
    O1622   O    0.58476   0.96613   0.12591   1.000
    O1623   O    0.32320   0.96613   0.12591   1.000
    O1624   O    0.96613   0.32320   0.12591   1.000
    O1625   O    0.58476   0.32320   0.12591   1.000
    O1626   O    0.32537   0.92463   0.12500   1.000
    O1627   O    0.33107   0.89791   0.13353   1.000
    O1628   O    0.33986   0.90675   0.14119   1.000
    O1629   O    0.62500   0.92463   0.12500   1.000
    O1630   O    0.63750   0.89791   0.13353   1.000
    O1631   O    0.61222   0.90675   0.14119   1.000
    O1632   O    0.60865   0.95304   0.13039   1.000
    O1633   O    0.92463   0.32537   0.12500   1.000
    O1634   O    0.89791   0.33107   0.13353   1.000
    O1635   O    0.90675   0.33986   0.14119   1.000
    O1636   O    0.30793   0.95304   0.13039   1.000
    O1637   O    0.62500   0.32537   0.12500   1.000
    O1638   O    0.63750   0.33107   0.13353   1.000
    O1639   O    0.61221   0.33986   0.14119   1.000
    O1640   O    0.92463   0.62500   0.12500   1.000
    O1641   O    0.89791   0.63750   0.13353   1.000
    O1642   O    0.90674   0.61222   0.14119   1.000
    O1643   O    0.95304   0.60865   0.13039   1.000
    O1644   O    0.32537   0.62500   0.12500   1.000
    O1645   O    0.30792   0.60865   0.13039   1.000
    O1646   O    0.33107   0.63750   0.13353   1.000
    O1647   O    0.33986   0.61222   0.14119   1.000
    O1648   O    0.95304   0.30792   0.13039   1.000
    O1649   O    0.67054   0.89871   0.13900   1.000
    O1650   O    0.67054   0.29176   0.13900   1.000
    O1651   O    0.29175   0.89871   0.13900   1.000
    O1652   O    0.89870   0.29176   0.13900   1.000
    O1653   O    0.29175   0.67054   0.13900   1.000
    O1654   O    0.89870   0.67054   0.13900   1.000
    O1655   O    0.96759   0.59780   0.14646   1.000
    O1656   O    0.95380   0.58502   0.15084   1.000
    O1657   O    0.96759   0.28815   0.14646   1.000
    O1658   O    0.95381   0.31034   0.15084   1.000
    O1659   O    0.28816   0.96759   0.14646   1.000
    O1660   O    0.31034   0.95380   0.15084   1.000
    O1661   O    0.59780   0.96759   0.14646   1.000
    O1662   O    0.58502   0.95380   0.15084   1.000
    O1663   O    0.59780   0.28815   0.14646   1.000
    O1664   O    0.58502   0.31034   0.15084   1.000
    O1665   O    0.28815   0.59780   0.14646   1.000
    O1666   O    0.31034   0.58502   0.15084   1.000
    O1667   O    0.65916   0.88726   0.14305   1.000
    O1668   O    0.65916   0.31055   0.14305   1.000
    O1669   O    0.88725   0.31055   0.14305   1.000
    O1670   O    0.31055   0.65916   0.14305   1.000
    O1671   O    0.88726   0.65916   0.14305   1.000
    O1672   O    0.31055   0.88726   0.14305   1.000
    O1673   O    0.25466   0.95805   0.15139   1.000
    O1674   O    0.63591   0.95805   0.15139   1.000
    O1675   O    0.25465   0.63591   0.15139   1.000
    O1676   O    0.95805   0.63591   0.15139   1.000
    O1677   O    0.95805   0.25466   0.15139   1.000
    O1678   O    0.63591   0.25466   0.15139   1.000
    O1679   O    0.26179   0.96580   0.15826   1.000
    O1680   O    0.61415   0.26179   0.15826   1.000
    O1681   O    0.96580   0.61416   0.15826   1.000
    O1682   O    0.96580   0.26179   0.15826   1.000
    O1683   O    0.61416   0.96580   0.15826   1.000
    O1684   O    0.26179   0.61416   0.15826   1.000
    O1685   O    0.91078   0.59068   0.16471   1.000
    O1686   O    0.33385   0.59068   0.16471   1.000
    O1687   O    0.33385   0.91078   0.16471   1.000
    O1688   O    0.91078   0.33384   0.16471   1.000
    O1689   O    0.59068   0.91078   0.16471   1.000
    O1690   O    0.59068   0.33384   0.16471   1.000
    O1691   O    0.92944   0.57983   0.16897   1.000
    O1692   O    0.92944   0.32177   0.16897   1.000
    O1693   O    0.57982   0.92944   0.16897   1.000
    O1694   O    0.57982   0.32177   0.16897   1.000
    O1695   O    0.32177   0.57983   0.16897   1.000
    O1696   O    0.32177   0.92944   0.16897   1.000
    O1697   O    0.79283   0.26063   0.20554   1.000
    O1698   O    0.78186   0.28033   0.20764   1.000
    O1699   O    0.74100   0.79283   0.20554   1.000
    O1700   O    0.73016   0.78186   0.20764   1.000
    O1701   O    0.74101   0.26063   0.20554   1.000
    O1702   O    0.73016   0.28033   0.20764   1.000
    O1703   O    0.26063   0.74100   0.20554   1.000
    O1704   O    0.28033   0.73016   0.20764   1.000
    O1705   O    0.26063   0.79283   0.20554   1.000
    O1706   O    0.28033   0.78186   0.20764   1.000
    O1707   O    0.79283   0.74100   0.20554   1.000
    O1708   O    0.78187   0.73016   0.20764   1.000
    O1709   O    0.23955   0.78177   0.21890   1.000
    O1710   O    0.23955   0.75978   0.21890   1.000
    O1711   O    0.75978   0.23955   0.21890   1.000
    O1712   O    0.78176   0.75978   0.21890   1.000
    O1713   O    0.78176   0.23955   0.21890   1.000
    O1714   O    0.75978   0.78177   0.21890   1.000
    O1715   O    0.28881   0.75450   0.22405   1.000
    O1716   O    0.28881   0.73264   0.22405   1.000
    O1717   O    0.73264   0.75450   0.22405   1.000
    O1718   O    0.75450   0.73264   0.22405   1.000
    O1719   O    0.73264   0.28882   0.22405   1.000
    O1720   O    0.75450   0.28882   0.22405   1.000
    O1721   O    0.21890   0.78177   0.23955   1.000
    O1722   O    0.21890   0.75978   0.23955   1.000
    O1723   O    0.78176   0.75978   0.23955   1.000
    O1724   O    0.75978   0.78177   0.23955   1.000
    O1725   O    0.78177   0.21890   0.23955   1.000
    O1726   O    0.75979   0.21890   0.23955   1.000
    O1727   O    0.27026   0.74300   0.24375   1.000
    O1728   O    0.29121   0.74180   0.24697   1.000
    O1729   O    0.29121   0.72002   0.24697   1.000
    O1730   O    0.74299   0.74300   0.24375   1.000
    O1731   O    0.72003   0.74180   0.24697   1.000
    O1732   O    0.74180   0.72002   0.24697   1.000
    O1733   O    0.74299   0.27026   0.24375   1.000
    O1734   O    0.72002   0.29121   0.24697   1.000
    O1735   O    0.74180   0.29121   0.24697   1.000
    O1736   O    0.79283   0.74100   0.26063   1.000
    O1737   O    0.74100   0.79283   0.26063   1.000
    O1738   O    0.79283   0.20554   0.26063   1.000
    O1739   O    0.74101   0.20554   0.26063   1.000
    O1740   O    0.20553   0.79283   0.26063   1.000
    O1741   O    0.20554   0.74100   0.26063   1.000
    O1742   O    0.74299   0.24375   0.27027   1.000
    O1743   O    0.74299   0.74300   0.27027   1.000
    O1744   O    0.24374   0.74300   0.27027   1.000
    O1745   O    0.15139   0.63591   0.25466   1.000
    O1746   O    0.15826   0.61415   0.26180   1.000
    O1747   O    0.63591   0.15138   0.25466   1.000
    O1748   O    0.61415   0.15825   0.26180   1.000
    O1749   O    0.95805   0.15138   0.25466   1.000
    O1750   O    0.96580   0.15825   0.26180   1.000
    O1751   O    0.95805   0.63591   0.25466   1.000
    O1752   O    0.96580   0.61415   0.26180   1.000
    O1753   O    0.63591   0.95805   0.25466   1.000
    O1754   O    0.61416   0.96580   0.26180   1.000
    O1755   O    0.15139   0.95805   0.25466   1.000
    O1756   O    0.15826   0.96580   0.26180   1.000
    O1757   O    0.65225   0.12882   0.27005   1.000
    O1758   O    0.12882   0.94888   0.27005   1.000
    O1759   O    0.12882   0.65225   0.27005   1.000
    O1760   O    0.65226   0.94888   0.27005   1.000
    O1761   O    0.94887   0.65225   0.27005   1.000
    O1762   O    0.94887   0.12882   0.27005   1.000
    O1763   O    0.28673   0.74777   0.26901   1.000
    O1764   O    0.69649   0.74777   0.26901   1.000
    O1765   O    0.74778   0.69649   0.26901   1.000
    O1766   O    0.69649   0.28673   0.26901   1.000
    O1767   O    0.74777   0.28673   0.26901   1.000
    O1768   O    0.28673   0.69649   0.26901   1.000
    O1769   O    0.96759   0.59780   0.28816   1.000
    O1770   O    0.59780   0.14646   0.28816   1.000
    O1771   O    0.14646   0.59780   0.28816   1.000
    O1772   O    0.14646   0.96759   0.28816   1.000
    O1773   O    0.96759   0.14646   0.28816   1.000
    O1774   O    0.59780   0.96759   0.28816   1.000
    O1775   O    0.73016   0.78186   0.28033   1.000
    O1776   O    0.78186   0.20764   0.28033   1.000
    O1777   O    0.20764   0.73016   0.28033   1.000
    O1778   O    0.73016   0.20764   0.28033   1.000
    O1779   O    0.20764   0.78186   0.28033   1.000
    O1780   O    0.78187   0.73016   0.28033   1.000
    O1781   O    0.84482   0.34749   0.27525   1.000
    O1782   O    0.86231   0.33639   0.28160   1.000
    O1783   O    0.53243   0.34749   0.27525   1.000
    O1784   O    0.51971   0.33639   0.28160   1.000
    O1785   O    0.34749   0.84482   0.27525   1.000
    O1786   O    0.33639   0.86231   0.28160   1.000
    O1787   O    0.84482   0.53243   0.27525   1.000
    O1788   O    0.86231   0.51970   0.28160   1.000
    O1789   O    0.53243   0.84482   0.27525   1.000
    O1790   O    0.51971   0.86231   0.28160   1.000
    O1791   O    0.34749   0.53243   0.27525   1.000
    O1792   O    0.33639   0.51970   0.28160   1.000
    O1793   O    0.81806   0.53346   0.29201   1.000
    O1794   O    0.35647   0.81806   0.29201   1.000
    O1795   O    0.35648   0.53346   0.29201   1.000
    O1796   O    0.53346   0.35647   0.29201   1.000
    O1797   O    0.81806   0.35647   0.29201   1.000
    O1798   O    0.53346   0.81806   0.29201   1.000
    O1799   O    0.69649   0.26901   0.28673   1.000
    O1800   O    0.26900   0.69649   0.28673   1.000
    O1801   O    0.74777   0.26901   0.28673   1.000
    O1802   O    0.26901   0.74778   0.28673   1.000
    O1803   O    0.69649   0.74778   0.28673   1.000
    O1804   O    0.74778   0.69649   0.28673   1.000
    O1805   O    0.65220   0.96185   0.28241   1.000
    O1806   O    0.63585   0.98821   0.28420   1.000
    O1807   O    0.65220   0.10354   0.28241   1.000
    O1808   O    0.63584   0.09174   0.28420   1.000
    O1809   O    0.10354   0.96185   0.28241   1.000
    O1810   O    0.09174   0.98821   0.28420   1.000
    O1811   O    0.96184   0.65220   0.28241   1.000
    O1812   O    0.98820   0.63585   0.28420   1.000
    O1813   O    0.10354   0.65220   0.28241   1.000
    O1814   O    0.09175   0.63585   0.28420   1.000
    O1815   O    0.96184   0.10354   0.28241   1.000
    O1816   O    0.98821   0.09174   0.28420   1.000
    O1817   O    0.66524   0.92680   0.28387   1.000
    O1818   O    0.66498   0.93966   0.29620   1.000
    O1819   O    0.12409   0.92680   0.28387   1.000
    O1820   O    0.09917   0.93966   0.29620   1.000
    O1821   O    0.92680   0.12409   0.28387   1.000
    O1822   O    0.93965   0.09917   0.29620   1.000
    O1823   O    0.92680   0.66524   0.28387   1.000
    O1824   O    0.93966   0.66498   0.29620   1.000
    O1825   O    0.94207   0.64135   0.29696   1.000
    O1826   O    0.12410   0.66524   0.28387   1.000
    O1827   O    0.09916   0.66498   0.29620   1.000
    O1828   O    0.11962   0.64135   0.29696   1.000
    O1829   O    0.66524   0.12409   0.28387   1.000
    O1830   O    0.66498   0.09917   0.29620   1.000
    O1831   O    0.64135   0.11961   0.29696   1.000
    O1832   O    0.67054   0.13900   0.29176   1.000
    O1833   O    0.89870   0.67054   0.29176   1.000
    O1834   O    0.13900   0.89871   0.29176   1.000
    O1835   O    0.67054   0.89871   0.29176   1.000
    O1836   O    0.89870   0.13900   0.29176   1.000
    O1837   O    0.13900   0.67054   0.29176   1.000
    O1838   O    0.61409   0.99534   0.29195   1.000
    O1839   O    0.99534   0.09861   0.29195   1.000
    O1840   O    0.09862   0.99534   0.29195   1.000
    O1841   O    0.61409   0.09861   0.29195   1.000
    O1842   O    0.09862   0.61409   0.29195   1.000
    O1843   O    0.99534   0.61409   0.29195   1.000
    O1844   O    0.75450   0.73263   0.28882   1.000
    O1845   O    0.22405   0.75449   0.28882   1.000
    O1846   O    0.73263   0.75449   0.28882   1.000
    O1847   O    0.22405   0.73263   0.28882   1.000
    O1848   O    0.73263   0.22405   0.28882   1.000
    O1849   O    0.75450   0.22405   0.28882   1.000
    O1850   O    0.24696   0.74180   0.29121   1.000
    O1851   O    0.24696   0.72003   0.29121   1.000
    O1852   O    0.74180   0.24696   0.29121   1.000
    O1853   O    0.72003   0.24696   0.29121   1.000
    O1854   O    0.74180   0.72003   0.29121   1.000
    O1855   O    0.72003   0.74180   0.29121   1.000
    O1856   O    0.50198   0.32843   0.30795   1.000
    O1857   O    0.86164   0.32843   0.30795   1.000
    O1858   O    0.86164   0.50198   0.30795   1.000
    O1859   O    0.32843   0.50198   0.30795   1.000
    O1860   O    0.32843   0.86164   0.30795   1.000
    O1861   O    0.50198   0.86164   0.30795   1.000
    O1862   O    0.12118   0.97995   0.30113   1.000
    O1863   O    0.97995   0.12118   0.30113   1.000
    O1864   O    0.59775   0.97995   0.30113   1.000
    O1865   O    0.12118   0.59774   0.30113   1.000
    O1866   O    0.59775   0.12118   0.30113   1.000
    O1867   O    0.97995   0.59774   0.30113   1.000
    O1868   O    0.88726   0.65916   0.31055   1.000
    O1869   O    0.65915   0.88726   0.31055   1.000
    O1870   O    0.14304   0.88726   0.31055   1.000
    O1871   O    0.14304   0.65916   0.31055   1.000
    O1872   O    0.65915   0.14304   0.31055   1.000
    O1873   O    0.88726   0.14304   0.31055   1.000
    O1874   O    0.79744   0.54795   0.30518   1.000
    O1875   O    0.78932   0.57153   0.31071   1.000
    O1876   O    0.79744   0.34945   0.30518   1.000
    O1877   O    0.78932   0.32844   0.31071   1.000
    O1878   O    0.34945   0.79744   0.30518   1.000
    O1879   O    0.32844   0.78933   0.31071   1.000
    O1880   O    0.54795   0.34945   0.30518   1.000
    O1881   O    0.57153   0.32844   0.31071   1.000
    O1882   O    0.54795   0.79744   0.30518   1.000
    O1883   O    0.57153   0.78933   0.31071   1.000
    O1884   O    0.34944   0.54795   0.30518   1.000
    O1885   O    0.32844   0.57153   0.31071   1.000
    O1886   O    0.95381   0.58502   0.31035   1.000
    O1887   O    0.96613   0.58476   0.32320   1.000
    O1888   O    0.95304   0.13038   0.30793   1.000
    O1889   O    0.95381   0.15083   0.31035   1.000
    O1890   O    0.96613   0.12591   0.32320   1.000
    O1891   O    0.58501   0.15083   0.31035   1.000
    O1892   O    0.58476   0.12591   0.32320   1.000
    O1893   O    0.60865   0.95304   0.30793   1.000
    O1894   O    0.58501   0.95381   0.31035   1.000
    O1895   O    0.58477   0.96613   0.32320   1.000
    O1896   O    0.15083   0.58502   0.31035   1.000
    O1897   O    0.12591   0.58476   0.32320   1.000
    O1898   O    0.13039   0.95304   0.30793   1.000
    O1899   O    0.15083   0.95381   0.31035   1.000
    O1900   O    0.12591   0.96613   0.32320   1.000
    O1901   O    0.80834   0.51354   0.30647   1.000
    O1902   O    0.82191   0.48581   0.30932   1.000
    O1903   O    0.80834   0.37167   0.30647   1.000
    O1904   O    0.82191   0.38295   0.30932   1.000
    O1905   O    0.37167   0.80834   0.30647   1.000
    O1906   O    0.38295   0.82192   0.30932   1.000
    O1907   O    0.51353   0.80834   0.30647   1.000
    O1908   O    0.48581   0.82192   0.30932   1.000
    O1909   O    0.51353   0.37167   0.30647   1.000
    O1910   O    0.48581   0.38295   0.30932   1.000
    O1911   O    0.37166   0.51354   0.30647   1.000
    O1912   O    0.38295   0.48581   0.30932   1.000
    O1913   O    0.52411   0.34513   0.31860   1.000
    O1914   O    0.52779   0.36423   0.31992   1.000
    O1915   O    0.34513   0.52410   0.31860   1.000
    O1916   O    0.36423   0.52780   0.31992   1.000
    O1917   O    0.52410   0.81217   0.31860   1.000
    O1918   O    0.52780   0.78807   0.31992   1.000
    O1919   O    0.34513   0.81217   0.31860   1.000
    O1920   O    0.36423   0.78807   0.31992   1.000
    O1921   O    0.81217   0.34513   0.31860   1.000
    O1922   O    0.78807   0.36423   0.31992   1.000
    O1923   O    0.81217   0.52410   0.31860   1.000
    O1924   O    0.78807   0.52780   0.31992   1.000
    O1925   O    0.08103   0.67018   0.32056   1.000
    O1926   O    0.92823   0.67018   0.32056   1.000
    O1927   O    0.67018   0.92823   0.32056   1.000
    O1928   O    0.08103   0.92823   0.32056   1.000
    O1929   O    0.67018   0.08103   0.32056   1.000
    O1930   O    0.92823   0.08103   0.32056   1.000
    O1931   O    0.62500   0.12500   0.32537   1.000
    O1932   O    0.12500   0.92463   0.32537   1.000
    O1933   O    0.12500   0.62500   0.32537   1.000
    O1934   O    0.62500   0.92463   0.32537   1.000
    O1935   O    0.92463   0.12500   0.32537   1.000
    O1936   O    0.92463   0.62500   0.32537   1.000
    O1937   O    0.83918   0.47333   0.31598   1.000
    O1938   O    0.83918   0.37151   0.31598   1.000
    O1939   O    0.37151   0.83918   0.31598   1.000
    O1940   O    0.47332   0.83918   0.31598   1.000
    O1941   O    0.37151   0.47333   0.31598   1.000
    O1942   O    0.47333   0.37151   0.31598   1.000
    O1943   O    0.92944   0.57983   0.32177   1.000
    O1944   O    0.57983   0.92944   0.32177   1.000
    O1945   O    0.16897   0.57983   0.32177   1.000
    O1946   O    0.92944   0.16897   0.32177   1.000
    O1947   O    0.16897   0.92944   0.32177   1.000
    O1948   O    0.57982   0.16897   0.32177   1.000
    O1949   O    0.78933   0.31070   0.32844   1.000
    O1950   O    0.57153   0.78932   0.32844   1.000
    O1951   O    0.78933   0.57153   0.32844   1.000
    O1952   O    0.31070   0.78932   0.32844   1.000
    O1953   O    0.31070   0.57153   0.32844   1.000
    O1954   O    0.57153   0.31070   0.32844   1.000
    O1955   O    0.34328   0.85169   0.32272   1.000
    O1956   O    0.48231   0.34328   0.32272   1.000
    O1957   O    0.85169   0.34328   0.32272   1.000
    O1958   O    0.85170   0.48231   0.32272   1.000
    O1959   O    0.48230   0.85169   0.32272   1.000
    O1960   O    0.34328   0.48231   0.32272   1.000
    O1961   O    0.13352   0.89791   0.33107   1.000
    O1962   O    0.63750   0.13353   0.33107   1.000
    O1963   O    0.89791   0.63750   0.33107   1.000
    O1964   O    0.63750   0.89791   0.33107   1.000
    O1965   O    0.89791   0.13353   0.33107   1.000
    O1966   O    0.13353   0.63750   0.33107   1.000
    O1967   O    0.50198   0.30795   0.32843   1.000
    O1968   O    0.48231   0.32271   0.34328   1.000
    O1969   O    0.30795   0.86164   0.32843   1.000
    O1970   O    0.32271   0.85169   0.34328   1.000
    O1971   O    0.86164   0.30795   0.32843   1.000
    O1972   O    0.85170   0.32271   0.34328   1.000
    O1973   O    0.86164   0.50198   0.32843   1.000
    O1974   O    0.85170   0.48231   0.34328   1.000
    O1975   O    0.50198   0.86164   0.32843   1.000
    O1976   O    0.48231   0.85169   0.34328   1.000
    O1977   O    0.30795   0.50198   0.32843   1.000
    O1978   O    0.32271   0.48231   0.34328   1.000
    O1979   O    0.91078   0.59067   0.33385   1.000
    O1980   O    0.91078   0.16470   0.33385   1.000
    O1981   O    0.16470   0.59067   0.33385   1.000
    O1982   O    0.59068   0.16470   0.33385   1.000
    O1983   O    0.59067   0.91079   0.33385   1.000
    O1984   O    0.16470   0.91079   0.33385   1.000
    O1985   O    0.81217   0.31860   0.34513   1.000
    O1986   O    0.31859   0.81217   0.34513   1.000
    O1987   O    0.52411   0.81217   0.34513   1.000
    O1988   O    0.31859   0.52411   0.34513   1.000
    O1989   O    0.81217   0.52411   0.34513   1.000
    O1990   O    0.52411   0.31860   0.34513   1.000
    O1991   O    0.86231   0.51970   0.33639   1.000
    O1992   O    0.86231   0.28160   0.33639   1.000
    O1993   O    0.28160   0.51970   0.33639   1.000
    O1994   O    0.28160   0.86231   0.33639   1.000
    O1995   O    0.51970   0.86231   0.33639   1.000
    O1996   O    0.51970   0.28160   0.33639   1.000
    O1997   O    0.65933   0.91616   0.33922   1.000
    O1998   O    0.91616   0.08529   0.33922   1.000
    O1999   O    0.08529   0.65933   0.33922   1.000
    O2000   O    0.91616   0.65933   0.33922   1.000
    O2001   O    0.65933   0.08529   0.33922   1.000
    O2002   O    0.08529   0.91616   0.33922   1.000
    O2003   O    0.36303   0.76761   0.34525   1.000
    O2004   O    0.76760   0.36303   0.34525   1.000
    O2005   O    0.52411   0.36303   0.34525   1.000
    O2006   O    0.52411   0.76761   0.34525   1.000
    O2007   O    0.36303   0.52411   0.34525   1.000
    O2008   O    0.76760   0.52411   0.34525   1.000
    O2009   O    0.14118   0.61222   0.33986   1.000
    O2010   O    0.90674   0.14119   0.33986   1.000
    O2011   O    0.61221   0.14119   0.33986   1.000
    O2012   O    0.14119   0.90674   0.33986   1.000
    O2013   O    0.61222   0.90674   0.33986   1.000
    O2014   O    0.90674   0.61222   0.33986   1.000
    O2015   O    0.79744   0.30517   0.34945   1.000
    O2016   O    0.30517   0.54795   0.34945   1.000
    O2017   O    0.79744   0.54795   0.34945   1.000
    O2018   O    0.54795   0.79744   0.34945   1.000
    O2019   O    0.30518   0.79744   0.34945   1.000
    O2020   O    0.54795   0.30517   0.34945   1.000
    O2021   O    0.95825   0.57946   0.35130   1.000
    O2022   O    0.95824   0.11100   0.35130   1.000
    O2023   O    0.57946   0.95824   0.35130   1.000
    O2024   O    0.11100   0.57946   0.35130   1.000
    O2025   O    0.57946   0.11100   0.35130   1.000
    O2026   O    0.11100   0.95824   0.35130   1.000
    O2027   O    0.91014   0.10881   0.34326   1.000
    O2028   O    0.91893   0.11648   0.35209   1.000
    O2029   O    0.10881   0.63778   0.34326   1.000
    O2030   O    0.11648   0.61250   0.35209   1.000
    O2031   O    0.63778   0.91014   0.34326   1.000
    O2032   O    0.61250   0.91893   0.35209   1.000
    O2033   O    0.91014   0.63778   0.34326   1.000
    O2034   O    0.91893   0.61250   0.35209   1.000
    O2035   O    0.63778   0.10881   0.34326   1.000
    O2036   O    0.61250   0.11648   0.35209   1.000
    O2037   O    0.10881   0.91014   0.34326   1.000
    O2038   O    0.11648   0.91893   0.35209   1.000
    O2039   O    0.27525   0.53243   0.34749   1.000
    O2040   O    0.84482   0.53243   0.34749   1.000
    O2041   O    0.53244   0.84482   0.34749   1.000
    O2042   O    0.53243   0.27525   0.34749   1.000
    O2043   O    0.84482   0.27525   0.34749   1.000
    O2044   O    0.27525   0.84482   0.34749   1.000
    O2045   O    0.53346   0.81806   0.35648   1.000
    O2046   O    0.29201   0.81806   0.35648   1.000
    O2047   O    0.29201   0.53345   0.35648   1.000
    O2048   O    0.53346   0.29201   0.35648   1.000
    O2049   O    0.81806   0.53345   0.35648   1.000
    O2050   O    0.81806   0.29201   0.35648   1.000
    O2051   O    0.34525   0.76760   0.36303   1.000
    O2052   O    0.76760   0.34525   0.36303   1.000
    O2053   O    0.52411   0.34525   0.36303   1.000
    O2054   O    0.52411   0.76760   0.36303   1.000
    O2055   O    0.34525   0.52411   0.36303   1.000
    O2056   O    0.76760   0.52411   0.36303   1.000
    O2057   O    0.78807   0.52779   0.36423   1.000
    O2058   O    0.80834   0.51353   0.37167   1.000
    O2059   O    0.52780   0.31992   0.36423   1.000
    O2060   O    0.51353   0.30646   0.37167   1.000
    O2061   O    0.31991   0.78807   0.36423   1.000
    O2062   O    0.30646   0.80834   0.37167   1.000
    O2063   O    0.78807   0.31992   0.36423   1.000
    O2064   O    0.80834   0.30646   0.37167   1.000
    O2065   O    0.52780   0.78807   0.36423   1.000
    O2066   O    0.51353   0.80834   0.37167   1.000
    O2067   O    0.31992   0.52779   0.36423   1.000
    O2068   O    0.30647   0.51353   0.37167   1.000
    O2069   O    0.31598   0.47333   0.37151   1.000
    O2070   O    0.31598   0.83918   0.37151   1.000
    O2071   O    0.83918   0.31598   0.37151   1.000
    O2072   O    0.83918   0.47333   0.37151   1.000
    O2073   O    0.47333   0.83918   0.37151   1.000
    O2074   O    0.47332   0.31598   0.37151   1.000
    O2075   O    0.10695   0.93945   0.36275   1.000
    O2076   O    0.93945   0.59085   0.36275   1.000
    O2077   O    0.93945   0.10696   0.36275   1.000
    O2078   O    0.59085   0.93945   0.36275   1.000
    O2079   O    0.10695   0.59085   0.36275   1.000
    O2080   O    0.59085   0.10696   0.36275   1.000
    O2081   O    0.30932   0.82191   0.38295   1.000
    O2082   O    0.82191   0.48581   0.38295   1.000
    O2083   O    0.48581   0.30932   0.38295   1.000
    O2084   O    0.48581   0.82191   0.38295   1.000
    O2085   O    0.82191   0.30932   0.38295   1.000
    O2086   O    0.30932   0.48581   0.38295   1.000
    O2087   O    0.96840   0.91361   0.38769   1.000
    O2088   O    0.94205   0.92157   0.38836   1.000
    O2089   O    0.91361   0.96840   0.38769   1.000
    O2090   O    0.92157   0.94205   0.38836   1.000
    O2091   O    0.73030   0.91361   0.38769   1.000
    O2092   O    0.74802   0.92157   0.38836   1.000
    O2093   O    0.73029   0.96840   0.38769   1.000
    O2094   O    0.74802   0.94205   0.38836   1.000
    O2095   O    0.96840   0.73030   0.38769   1.000
    O2096   O    0.94205   0.74802   0.38836   1.000
    O2097   O    0.91361   0.73030   0.38769   1.000
    O2098   O    0.92157   0.74802   0.38836   1.000
    O2099   O    0.71756   0.97475   0.40518   1.000
    O2100   O    0.90251   0.97475   0.40518   1.000
    O2101   O    0.97475   0.71757   0.40518   1.000
    O2102   O    0.97475   0.90251   0.40518   1.000
    O2103   O    0.90251   0.71757   0.40518   1.000
    O2104   O    0.71757   0.90251   0.40518   1.000
    O2105   O    0.92728   0.90672   0.39831   1.000
    O2106   O    0.90672   0.92728   0.39831   1.000
    O2107   O    0.92728   0.76770   0.39831   1.000
    O2108   O    0.90672   0.76770   0.39831   1.000
    O2109   O    0.76769   0.92728   0.39831   1.000
    O2110   O    0.76769   0.90672   0.39831   1.000
    O2111   O    0.93402   0.77668   0.41082   1.000
    O2112   O    0.93402   0.87849   0.41082   1.000
    O2113   O    0.77667   0.93402   0.41082   1.000
    O2114   O    0.87849   0.93402   0.41082   1.000
    O2115   O    0.77668   0.87849   0.41082   1.000
    O2116   O    0.87849   0.77668   0.41082   1.000
    O2117   O    0.45769   0.65060   0.41340   1.000
    O2118   O    0.43135   0.66814   0.41360   1.000
    O2119   O    0.65060   0.47831   0.41340   1.000
    O2120   O    0.66814   0.48692   0.41360   1.000
    O2121   O    0.47831   0.65060   0.41340   1.000
    O2122   O    0.48693   0.66814   0.41360   1.000
    O2123   O    0.45768   0.47831   0.41340   1.000
    O2124   O    0.43135   0.48692   0.41360   1.000
    O2125   O    0.47831   0.45768   0.41340   1.000
    O2126   O    0.48693   0.43135   0.41360   1.000
    O2127   O    0.65060   0.45768   0.41340   1.000
    O2128   O    0.66814   0.43135   0.41360   1.000
    O2129   O    0.89353   0.71654   0.43194   1.000
    O2130   O    0.95799   0.89353   0.43194   1.000
    O2131   O    0.71654   0.89353   0.43194   1.000
    O2132   O    0.89353   0.95799   0.43194   1.000
    O2133   O    0.71655   0.95799   0.43194   1.000
    O2134   O    0.95799   0.71654   0.43194   1.000
    O2135   O    0.62437   0.48699   0.42220   1.000
    O2136   O    0.62437   0.46644   0.42220   1.000
    O2137   O    0.48700   0.62437   0.42220   1.000
    O2138   O    0.46644   0.62437   0.42220   1.000
    O2139   O    0.46300   0.63754   0.43647   1.000
    O2140   O    0.46644   0.48699   0.42220   1.000
    O2141   O    0.48699   0.46644   0.42220   1.000
    O2142   O    0.46300   0.46299   0.43647   1.000
    O2143   O    0.41359   0.48693   0.43135   1.000
    O2144   O    0.41360   0.66813   0.43135   1.000
    O2145   O    0.66814   0.41359   0.43135   1.000
    O2146   O    0.48693   0.41359   0.43135   1.000
    O2147   O    0.66813   0.48693   0.43135   1.000
    O2148   O    0.48693   0.66813   0.43135   1.000
    O2149   O    0.76419   0.86705   0.42809   1.000
    O2150   O    0.94068   0.86705   0.42809   1.000
    O2151   O    0.94068   0.76419   0.42809   1.000
    O2152   O    0.86705   0.76419   0.42809   1.000
    O2153   O    0.86705   0.94068   0.42809   1.000
    O2154   O    0.76419   0.94068   0.42809   1.000
    O2155   O    0.45191   0.50722   0.43420   1.000
    O2156   O    0.60668   0.50722   0.43420   1.000
    O2157   O    0.50721   0.60667   0.43420   1.000
    O2158   O    0.60668   0.45191   0.43420   1.000
    O2159   O    0.45192   0.60667   0.43420   1.000
    O2160   O    0.50721   0.45191   0.43420   1.000
    O2161   O    0.90487   0.72589   0.43783   1.000
    O2162   O    0.93141   0.72589   0.43783   1.000
    O2163   O    0.90487   0.93141   0.43783   1.000
    O2164   O    0.93141   0.90487   0.43783   1.000
    O2165   O    0.72589   0.90487   0.43783   1.000
    O2166   O    0.72590   0.93141   0.43783   1.000
    O2167   O    0.94353   0.87834   0.44166   1.000
    O2168   O    0.73646   0.87834   0.44166   1.000
    O2169   O    0.87834   0.94354   0.44166   1.000
    O2170   O    0.94353   0.73647   0.44166   1.000
    O2171   O    0.73646   0.94354   0.44166   1.000
    O2172   O    0.87833   0.73647   0.44166   1.000
    O2173   O    0.60668   0.50721   0.45192   1.000
    O2174   O    0.50721   0.43419   0.45192   1.000
    O2175   O    0.43419   0.60667   0.45192   1.000
    O2176   O    0.43419   0.50721   0.45192   1.000
    O2177   O    0.60667   0.43419   0.45192   1.000
    O2178   O    0.50722   0.60667   0.45192   1.000
    O2179   O    0.65060   0.41340   0.45769   1.000
    O2180   O    0.41341   0.47831   0.45769   1.000
    O2181   O    0.41340   0.65060   0.45769   1.000
    O2182   O    0.65060   0.47831   0.45769   1.000
    O2183   O    0.47831   0.65060   0.45769   1.000
    O2184   O    0.47831   0.41340   0.45769   1.000
    O2185   O    0.90055   0.94482   0.45256   1.000
    O2186   O    0.88577   0.93009   0.46194   1.000
    O2187   O    0.70205   0.90055   0.45256   1.000
    O2188   O    0.72220   0.88577   0.46194   1.000
    O2189   O    0.90055   0.70205   0.45256   1.000
    O2190   O    0.88577   0.72220   0.46194   1.000
    O2191   O    0.94482   0.90055   0.45256   1.000
    O2192   O    0.93008   0.88577   0.46194   1.000
    O2193   O    0.70205   0.94482   0.45256   1.000
    O2194   O    0.72220   0.93009   0.46194   1.000
    O2195   O    0.94482   0.70205   0.45256   1.000
    O2196   O    0.93009   0.72220   0.46194   1.000
    O2197   O    0.63755   0.46299   0.46300   1.000
    O2198   O    0.63755   0.43647   0.46300   1.000
    O2199   O    0.46299   0.63754   0.46300   1.000
    O2200   O    0.46300   0.43647   0.46300   1.000
    O2201   O    0.98937   0.04446   0.45717   1.000
    O2202   O    0.01045   0.03110   0.46824   1.000
    O2203   O    0.50900   0.04446   0.45717   1.000
    O2204   O    0.49022   0.03110   0.46824   1.000
    O2205   O    0.98937   0.50899   0.45717   1.000
    O2206   O    0.01045   0.49022   0.46824   1.000
    O2207   O    0.50899   0.98937   0.45717   1.000
    O2208   O    0.49022   0.01045   0.46824   1.000
    O2209   O    0.04447   0.50899   0.45717   1.000
    O2210   O    0.03110   0.49022   0.46824   1.000
    O2211   O    0.04447   0.98937   0.45717   1.000
    O2212   O    0.03110   0.01045   0.46824   1.000
    O2213   O    0.04236   0.96967   0.46814   1.000
    O2214   O    0.96967   0.51984   0.46814   1.000
    O2215   O    0.04236   0.51984   0.46814   1.000
    O2216   O    0.51984   0.96967   0.46814   1.000
    O2217   O    0.51984   0.04236   0.46814   1.000
    O2218   O    0.96967   0.04236   0.46814   1.000
    O2219   O    0.92156   0.93929   0.46068   1.000
    O2220   O    0.93929   0.67847   0.46068   1.000
    O2221   O    0.67847   0.93929   0.46068   1.000
    O2222   O    0.93929   0.92156   0.46068   1.000
    O2223   O    0.92156   0.67847   0.46068   1.000
    O2224   O    0.67847   0.92156   0.46068   1.000
    O2225   O    0.48699   0.62437   0.46644   1.000
    O2226   O    0.42219   0.62437   0.46644   1.000
    O2227   O    0.48699   0.42219   0.46644   1.000
    O2228   O    0.62437   0.48700   0.46644   1.000
    O2229   O    0.62437   0.42219   0.46644   1.000
    O2230   O    0.42219   0.48700   0.46644   1.000
    O2231   O    0.83918   0.31598   0.47333   1.000
    O2232   O    0.85169   0.32271   0.48231   1.000
    O2233   O    0.37151   0.83918   0.47333   1.000
    O2234   O    0.34328   0.85169   0.48231   1.000
    O2235   O    0.83918   0.37151   0.47333   1.000
    O2236   O    0.85169   0.34328   0.48231   1.000
    O2237   O    0.31598   0.83918   0.47333   1.000
    O2238   O    0.32271   0.85169   0.48231   1.000
    O2239   O    0.37151   0.31598   0.47333   1.000
    O2240   O    0.34328   0.32271   0.48231   1.000
    O2241   O    0.31598   0.37151   0.47333   1.000
    O2242   O    0.32271   0.34328   0.48231   1.000
    O2243   O    0.65060   0.45768   0.47831   1.000
    O2244   O    0.62437   0.46644   0.48700   1.000
    O2245   O    0.45769   0.41340   0.47831   1.000
    O2246   O    0.46644   0.42220   0.48700   1.000
    O2247   O    0.45769   0.65060   0.47831   1.000
    O2248   O    0.46644   0.62437   0.48700   1.000
    O2249   O    0.41341   0.65060   0.47831   1.000
    O2250   O    0.42220   0.62437   0.48700   1.000
    O2251   O    0.41340   0.45768   0.47831   1.000
    O2252   O    0.42219   0.46644   0.48700   1.000
    O2253   O    0.65060   0.41340   0.47831   1.000
    O2254   O    0.62437   0.42220   0.48700   1.000
    O2255   O    0.38295   0.30932   0.48581   1.000
    O2256   O    0.38295   0.82191   0.48581   1.000
    O2257   O    0.30932   0.38295   0.48581   1.000
    O2258   O    0.30932   0.82191   0.48581   1.000
    O2259   O    0.82191   0.38295   0.48581   1.000
    O2260   O    0.82192   0.30932   0.48581   1.000
    O2261   O    0.90475   0.88697   0.48240   1.000
    O2262   O    0.72589   0.88697   0.48240   1.000
    O2263   O    0.88697   0.90475   0.48240   1.000
    O2264   O    0.72588   0.90475   0.48240   1.000
    O2265   O    0.88697   0.72588   0.48240   1.000
    O2266   O    0.90475   0.72588   0.48240   1.000
    O2267   O    0.96119   0.02595   0.49551   1.000
    O2268   O    0.51737   0.96118   0.49551   1.000
    O2269   O    0.02595   0.96118   0.49551   1.000
    O2270   O    0.51737   0.02595   0.49551   1.000
    O2271   O    0.96118   0.51737   0.49551   1.000
    O2272   O    0.02595   0.51737   0.49551   1.000
    O2273   O    0.01045   0.03110   0.49022   1.000
    O2274   O    0.03110   0.01045   0.49022   1.000
    O2275   O    0.46823   0.03110   0.49022   1.000
    O2276   O    0.46823   0.01045   0.49022   1.000
    O2277   O    0.03110   0.46824   0.49022   1.000
    O2278   O    0.01045   0.46824   0.49022   1.000
    O2279   O    0.41360   0.66813   0.48693   1.000
    O2280   O    0.43135   0.66813   0.48693   1.000
    O2281   O    0.66813   0.41360   0.48693   1.000
    O2282   O    0.41359   0.43135   0.48693   1.000
    O2283   O    0.66813   0.43135   0.48693   1.000
    O2284   O    0.43135   0.41360   0.48693   1.000
    O2285   O    0.30795   0.32843   0.50198   1.000
    O2286   O    0.32843   0.30795   0.50198   1.000
    O2287   O    0.86164   0.32843   0.50198   1.000
    O2288   O    0.86164   0.30795   0.50198   1.000
    O2289   O    0.30795   0.86164   0.50198   1.000
    O2290   O    0.32843   0.86164   0.50198   1.000
    O2291   O    0.37167   0.80834   0.51354   1.000
    O2292   O    0.37167   0.30646   0.51354   1.000
    O2293   O    0.80834   0.37167   0.51354   1.000
    O2294   O    0.30647   0.37167   0.51354   1.000
    O2295   O    0.30646   0.80834   0.51354   1.000
    O2296   O    0.80834   0.30646   0.51354   1.000
    O2297   O    0.96327   0.55351   0.50223   1.000
    O2298   O    0.98099   0.55351   0.50223   1.000
    O2299   O    0.55351   0.98100   0.50223   1.000
    O2300   O    0.55351   0.96327   0.50223   1.000
    O2301   O    0.98100   0.96327   0.50223   1.000
    O2302   O    0.96327   0.98100   0.50223   1.000
    O2303   O    0.45717   0.04446   0.50900   1.000
    O2304   O    0.04447   0.45717   0.50900   1.000
    O2305   O    0.98937   0.45717   0.50900   1.000
    O2306   O    0.98937   0.04446   0.50900   1.000
    O2307   O    0.04446   0.98937   0.50900   1.000
    O2308   O    0.45717   0.98937   0.50900   1.000
    O2309   O    0.50700   0.97974   0.50701   1.000
    O2310   O    0.50701   0.00626   0.50701   1.000
    O2311   O    0.97974   0.50700   0.50701   1.000
    O2312   O    0.00625   0.50700   0.50701   1.000
    O2313   O    0.97974   0.00626   0.50701   1.000
    O2314   O    0.00626   0.97974   0.50701   1.000
    O2315   O    0.43420   0.45191   0.50722   1.000
    O2316   O    0.45192   0.43419   0.50722   1.000
    O2317   O    0.43419   0.60667   0.50722   1.000
    O2318   O    0.60668   0.45191   0.50722   1.000
    O2319   O    0.60667   0.43419   0.50722   1.000
    O2320   O    0.45192   0.60667   0.50722   1.000
    O2321   O    0.95879   0.52998   0.50820   1.000
    O2322   O    0.00304   0.52998   0.50820   1.000
    O2323   O    0.52998   0.00304   0.50820   1.000
    O2324   O    0.00304   0.95879   0.50820   1.000
    O2325   O    0.52997   0.95879   0.50820   1.000
    O2326   O    0.95879   0.00304   0.50820   1.000
    O2327   O    0.28160   0.86231   0.51971   1.000
    O2328   O    0.86231   0.33639   0.51971   1.000
    O2329   O    0.28160   0.33639   0.51971   1.000
    O2330   O    0.86231   0.28160   0.51971   1.000
    O2331   O    0.33639   0.28160   0.51971   1.000
    O2332   O    0.33639   0.86231   0.51971   1.000
    O2333   O    0.96119   0.49550   0.51737   1.000
    O2334   O    0.95879   0.50820   0.52998   1.000
    O2335   O    0.02595   0.49550   0.51737   1.000
    O2336   O    0.00304   0.50820   0.52998   1.000
    O2337   O    0.49551   0.96119   0.51737   1.000
    O2338   O    0.50820   0.95879   0.52998   1.000
    O2339   O    0.49550   0.02595   0.51737   1.000
    O2340   O    0.50820   0.00304   0.52998   1.000
    O2341   O    0.96118   0.02595   0.51737   1.000
    O2342   O    0.95879   0.00304   0.52998   1.000
    O2343   O    0.02595   0.96119   0.51737   1.000
    O2344   O    0.00303   0.95879   0.52998   1.000
    O2345   O    0.46813   0.04236   0.51984   1.000
    O2346   O    0.46814   0.96967   0.51984   1.000
    O2347   O    0.04236   0.46814   0.51984   1.000
    O2348   O    0.96967   0.46814   0.51984   1.000
    O2349   O    0.96967   0.04236   0.51984   1.000
    O2350   O    0.04236   0.96967   0.51984   1.000
    O2351   O    0.31859   0.34513   0.52411   1.000
    O2352   O    0.34513   0.31860   0.52411   1.000
    O2353   O    0.81217   0.34513   0.52411   1.000
    O2354   O    0.81217   0.31860   0.52411   1.000
    O2355   O    0.31860   0.81217   0.52411   1.000
    O2356   O    0.34513   0.81217   0.52411   1.000
    O2357   O    0.36303   0.34525   0.52412   1.000
    O2358   O    0.34525   0.36303   0.52412   1.000
    O2359   O    0.36303   0.76761   0.52412   1.000
    O2360   O    0.34525   0.76761   0.52412   1.000
    O2361   O    0.76760   0.34525   0.52412   1.000
    O2362   O    0.76760   0.36303   0.52412   1.000
    O2363   O    0.78806   0.31992   0.52780   1.000
    O2364   O    0.36423   0.31992   0.52780   1.000
    O2365   O    0.78807   0.36423   0.52780   1.000
    O2366   O    0.36423   0.78807   0.52780   1.000
    O2367   O    0.31992   0.78807   0.52780   1.000
    O2368   O    0.31992   0.36423   0.52780   1.000
    O2369   O    0.27525   0.34749   0.53244   1.000
    O2370   O    0.84482   0.27525   0.53244   1.000
    O2371   O    0.27525   0.84482   0.53244   1.000
    O2372   O    0.34749   0.84482   0.53244   1.000
    O2373   O    0.34749   0.27525   0.53244   1.000
    O2374   O    0.84482   0.34749   0.53244   1.000
    O2375   O    0.29201   0.81806   0.53346   1.000
    O2376   O    0.30518   0.79744   0.54795   1.000
    O2377   O    0.29201   0.35648   0.53346   1.000
    O2378   O    0.30517   0.34945   0.54795   1.000
    O2379   O    0.35647   0.29201   0.53346   1.000
    O2380   O    0.34944   0.30518   0.54795   1.000
    O2381   O    0.81806   0.35648   0.53346   1.000
    O2382   O    0.79744   0.34945   0.54795   1.000
    O2383   O    0.35647   0.81806   0.53346   1.000
    O2384   O    0.34945   0.79744   0.54795   1.000
    O2385   O    0.81806   0.29201   0.53346   1.000
    O2386   O    0.79744   0.30518   0.54795   1.000
    O2387   O    0.96327   0.50223   0.55351   1.000
    O2388   O    0.98099   0.96327   0.55351   1.000
    O2389   O    0.50222   0.96327   0.55351   1.000
    O2390   O    0.96327   0.98100   0.55351   1.000
    O2391   O    0.50223   0.98100   0.55351   1.000
    O2392   O    0.98100   0.50223   0.55351   1.000
    O2393   O    0.78932   0.31071   0.57153   1.000
    O2394   O    0.32844   0.31071   0.57153   1.000
    O2395   O    0.32844   0.78933   0.57153   1.000
    O2396   O    0.31070   0.32844   0.57153   1.000
    O2397   O    0.31070   0.78933   0.57153   1.000
    O2398   O    0.78932   0.32844   0.57153   1.000
    O2399   O    0.35129   0.95825   0.57946   1.000
    O2400   O    0.32320   0.96613   0.58477   1.000
    O2401   O    0.95824   0.35129   0.57946   1.000
    O2402   O    0.96613   0.32320   0.58477   1.000
    O2403   O    0.95824   0.11100   0.57946   1.000
    O2404   O    0.96613   0.12590   0.58477   1.000
    O2405   O    0.11100   0.95825   0.57946   1.000
    O2406   O    0.12590   0.96613   0.58477   1.000
    O2407   O    0.35129   0.11100   0.57946   1.000
    O2408   O    0.32320   0.12590   0.58477   1.000
    O2409   O    0.11100   0.35129   0.57946   1.000
    O2410   O    0.12590   0.32320   0.58477   1.000
    O2411   O    0.83641   0.81865   0.58187   1.000
    O2412   O    0.81865   0.83641   0.58187   1.000
    O2413   O    0.76307   0.81865   0.58187   1.000
    O2414   O    0.76307   0.83641   0.58187   1.000
    O2415   O    0.81865   0.76308   0.58187   1.000
    O2416   O    0.83640   0.76308   0.58187   1.000
    O2417   O    0.32177   0.16897   0.57983   1.000
    O2418   O    0.31034   0.15084   0.58502   1.000
    O2419   O    0.16897   0.92944   0.57983   1.000
    O2420   O    0.15083   0.95381   0.58502   1.000
    O2421   O    0.32177   0.92944   0.57983   1.000
    O2422   O    0.31034   0.95381   0.58502   1.000
    O2423   O    0.92944   0.32177   0.57983   1.000
    O2424   O    0.95381   0.31034   0.58502   1.000
    O2425   O    0.92944   0.16897   0.57983   1.000
    O2426   O    0.95381   0.15084   0.58502   1.000
    O2427   O    0.16897   0.32177   0.57983   1.000
    O2428   O    0.15083   0.31034   0.58502   1.000
    O2429   O    0.10696   0.93945   0.59085   1.000
    O2430   O    0.93945   0.10696   0.59085   1.000
    O2431   O    0.36274   0.93945   0.59085   1.000
    O2432   O    0.10695   0.36274   0.59085   1.000
    O2433   O    0.93945   0.36274   0.59085   1.000
    O2434   O    0.36274   0.10696   0.59085   1.000
    O2435   O    0.16470   0.91079   0.59068   1.000
    O2436   O    0.16470   0.33384   0.59068   1.000
    O2437   O    0.91078   0.33384   0.59068   1.000
    O2438   O    0.91078   0.16470   0.59068   1.000
    O2439   O    0.33384   0.91079   0.59068   1.000
    O2440   O    0.33384   0.16470   0.59068   1.000
    O2441   O    0.79231   0.77169   0.59940   1.000
    O2442   O    0.77169   0.79231   0.59940   1.000
    O2443   O    0.83660   0.79231   0.59940   1.000
    O2444   O    0.77169   0.83660   0.59940   1.000
    O2445   O    0.83660   0.77169   0.59940   1.000
    O2446   O    0.79231   0.83660   0.59940   1.000
    O2447   O    0.30112   0.12118   0.59775   1.000
    O2448   O    0.28816   0.14646   0.59780   1.000
    O2449   O    0.30792   0.13038   0.60865   1.000
    O2450   O    0.30112   0.97995   0.59775   1.000
    O2451   O    0.28815   0.96759   0.59780   1.000
    O2452   O    0.97995   0.30112   0.59775   1.000
    O2453   O    0.96759   0.28815   0.59780   1.000
    O2454   O    0.12118   0.97995   0.59775   1.000
    O2455   O    0.14646   0.96759   0.59780   1.000
    O2456   O    0.12118   0.30112   0.59775   1.000
    O2457   O    0.14646   0.28815   0.59780   1.000
    O2458   O    0.13038   0.30793   0.60865   1.000
    O2459   O    0.97995   0.12118   0.59775   1.000
    O2460   O    0.96759   0.14646   0.59780   1.000
    O2461   O    0.90674   0.14119   0.61222   1.000
    O2462   O    0.33986   0.90675   0.61222   1.000
    O2463   O    0.14118   0.33986   0.61222   1.000
    O2464   O    0.14119   0.90675   0.61222   1.000
    O2465   O    0.33986   0.14119   0.61222   1.000
    O2466   O    0.90674   0.33986   0.61222   1.000
    O2467   O    0.91893   0.35209   0.61250   1.000
    O2468   O    0.35209   0.91893   0.61250   1.000
    O2469   O    0.11647   0.35209   0.61250   1.000
    O2470   O    0.11648   0.91893   0.61250   1.000
    O2471   O    0.35209   0.11647   0.61250   1.000
    O2472   O    0.91893   0.11647   0.61250   1.000
    O2473   O    0.45192   0.43419   0.60668   1.000
    O2474   O    0.43419   0.45191   0.60668   1.000
    O2475   O    0.45192   0.50721   0.60668   1.000
    O2476   O    0.43419   0.50721   0.60668   1.000
    O2477   O    0.50722   0.45191   0.60668   1.000
    O2478   O    0.50721   0.43419   0.60668   1.000
    O2479   O    0.29195   0.99534   0.61409   1.000
    O2480   O    0.09861   0.99534   0.61409   1.000
    O2481   O    0.29195   0.09861   0.61409   1.000
    O2482   O    0.99534   0.29195   0.61409   1.000
    O2483   O    0.99534   0.09861   0.61409   1.000
    O2484   O    0.09862   0.29195   0.61409   1.000
    O2485   O    0.15826   0.96580   0.61416   1.000
    O2486   O    0.26179   0.15825   0.61416   1.000
    O2487   O    0.96580   0.26179   0.61416   1.000
    O2488   O    0.96580   0.15825   0.61416   1.000
    O2489   O    0.15826   0.26179   0.61416   1.000
    O2490   O    0.26180   0.96580   0.61416   1.000
    O2491   O    0.48699   0.46644   0.62437   1.000
    O2492   O    0.46644   0.42219   0.62437   1.000
    O2493   O    0.42219   0.46644   0.62437   1.000
    O2494   O    0.46644   0.48700   0.62437   1.000
    O2495   O    0.42219   0.48700   0.62437   1.000
    O2496   O    0.48699   0.42219   0.62437   1.000
    O2497   O    0.78701   0.81353   0.61246   1.000
    O2498   O    0.78700   0.78701   0.61246   1.000
    O2499   O    0.82780   0.76300   0.62563   1.000
    O2500   O    0.82780   0.78356   0.62563   1.000
    O2501   O    0.76300   0.82780   0.62563   1.000
    O2502   O    0.78356   0.82780   0.62563   1.000
    O2503   O    0.76301   0.78356   0.62563   1.000
    O2504   O    0.78356   0.76300   0.62563   1.000
    O2505   O    0.98821   0.09175   0.63585   1.000
    O2506   O    0.09174   0.98821   0.63585   1.000
    O2507   O    0.09175   0.28420   0.63585   1.000
    O2508   O    0.28420   0.09175   0.63585   1.000
    O2509   O    0.28420   0.98821   0.63585   1.000
    O2510   O    0.98821   0.28420   0.63585   1.000
    O2511   O    0.32536   0.12500   0.62500   1.000
    O2512   O    0.33107   0.13352   0.63750   1.000
    O2513   O    0.34325   0.10881   0.63779   1.000
    O2514   O    0.12500   0.92463   0.62500   1.000
    O2515   O    0.13352   0.89791   0.63750   1.000
    O2516   O    0.10881   0.91014   0.63779   1.000
    O2517   O    0.92463   0.32536   0.62500   1.000
    O2518   O    0.94207   0.29696   0.64135   1.000
    O2519   O    0.11961   0.94207   0.64135   1.000
    O2520   O    0.12500   0.32536   0.62500   1.000
    O2521   O    0.13353   0.33107   0.63750   1.000
    O2522   O    0.10881   0.34325   0.63779   1.000
    O2523   O    0.32537   0.92463   0.62500   1.000
    O2524   O    0.33107   0.89791   0.63750   1.000
    O2525   O    0.34325   0.91014   0.63779   1.000
    O2526   O    0.29696   0.94207   0.64135   1.000
    O2527   O    0.89791   0.33107   0.63750   1.000
    O2528   O    0.91014   0.34325   0.63779   1.000
    O2529   O    0.92463   0.12500   0.62500   1.000
    O2530   O    0.94207   0.11962   0.64135   1.000
    O2531   O    0.89791   0.13352   0.63750   1.000
    O2532   O    0.91014   0.10881   0.63779   1.000
    O2533   O    0.15139   0.95805   0.63591   1.000
    O2534   O    0.25465   0.15139   0.63591   1.000
    O2535   O    0.95805   0.15139   0.63591   1.000
    O2536   O    0.95805   0.25465   0.63591   1.000
    O2537   O    0.15139   0.25465   0.63591   1.000
    O2538   O    0.25465   0.95805   0.63591   1.000
    O2539   O    0.46300   0.46299   0.63755   1.000
    O2540   O    0.47831   0.45768   0.65060   1.000
    O2541   O    0.45769   0.47831   0.65060   1.000
    O2542   O    0.41340   0.45768   0.65060   1.000
    O2543   O    0.41341   0.47831   0.65060   1.000
    O2544   O    0.46300   0.43647   0.63755   1.000
    O2545   O    0.45768   0.41340   0.65060   1.000
    O2546   O    0.47831   0.41340   0.65060   1.000
    O2547   O    0.74279   0.81581   0.64333   1.000
    O2548   O    0.74279   0.79808   0.64333   1.000
    O2549   O    0.81581   0.74279   0.64333   1.000
    O2550   O    0.79808   0.74279   0.64333   1.000
    O2551   O    0.79809   0.81581   0.64333   1.000
    O2552   O    0.81581   0.79808   0.64333   1.000
    O2553   O    0.28241   0.96185   0.65220   1.000
    O2554   O    0.96184   0.10354   0.65220   1.000
    O2555   O    0.10354   0.96185   0.65220   1.000
    O2556   O    0.10354   0.28241   0.65220   1.000
    O2557   O    0.96184   0.28241   0.65220   1.000
    O2558   O    0.28241   0.10354   0.65220   1.000
    O2559   O    0.12882   0.94888   0.65226   1.000
    O2560   O    0.12882   0.27005   0.65226   1.000
    O2561   O    0.27005   0.12882   0.65226   1.000
    O2562   O    0.94888   0.12882   0.65226   1.000
    O2563   O    0.27005   0.94888   0.65226   1.000
    O2564   O    0.94887   0.27005   0.65226   1.000
    O2565   O    0.88725   0.14305   0.65916   1.000
    O2566   O    0.14304   0.31055   0.65916   1.000
    O2567   O    0.31055   0.14305   0.65916   1.000
    O2568   O    0.88725   0.31055   0.65916   1.000
    O2569   O    0.14304   0.88725   0.65916   1.000
    O2570   O    0.31055   0.88725   0.65916   1.000
    O2571   O    0.33921   0.91616   0.65933   1.000
    O2572   O    0.33921   0.08529   0.65933   1.000
    O2573   O    0.91616   0.33921   0.65933   1.000
    O2574   O    0.08529   0.33921   0.65933   1.000
    O2575   O    0.91615   0.08529   0.65933   1.000
    O2576   O    0.08529   0.91616   0.65933   1.000
    O2577   O    0.93966   0.29620   0.66499   1.000
    O2578   O    0.92680   0.28387   0.66523   1.000
    O2579   O    0.29619   0.09917   0.66499   1.000
    O2580   O    0.28387   0.12410   0.66523   1.000
    O2581   O    0.09916   0.29620   0.66499   1.000
    O2582   O    0.12410   0.28387   0.66523   1.000
    O2583   O    0.93966   0.09917   0.66499   1.000
    O2584   O    0.92680   0.12410   0.66523   1.000
    O2585   O    0.29620   0.93965   0.66499   1.000
    O2586   O    0.28387   0.92680   0.66523   1.000
    O2587   O    0.09916   0.93965   0.66499   1.000
    O2588   O    0.12409   0.92680   0.66523   1.000
    O2589   O    0.41360   0.43135   0.66814   1.000
    O2590   O    0.43135   0.41359   0.66814   1.000
    O2591   O    0.48693   0.41359   0.66814   1.000
    O2592   O    0.48693   0.43135   0.66814   1.000
    O2593   O    0.41359   0.48693   0.66814   1.000
    O2594   O    0.43135   0.48693   0.66814   1.000
    O2595   O    0.32056   0.08103   0.67018   1.000
    O2596   O    0.08103   0.32056   0.67018   1.000
    O2597   O    0.92823   0.08103   0.67018   1.000
    O2598   O    0.08103   0.92823   0.67018   1.000
    O2599   O    0.92823   0.32056   0.67018   1.000
    O2600   O    0.32056   0.92823   0.67018   1.000
    O2601   O    0.89871   0.13900   0.67054   1.000
    O2602   O    0.29175   0.13900   0.67054   1.000
    O2603   O    0.29175   0.89871   0.67054   1.000
    O2604   O    0.13900   0.29175   0.67054   1.000
    O2605   O    0.89870   0.29175   0.67054   1.000
    O2606   O    0.13900   0.89871   0.67054   1.000
    O2607   O    0.92156   0.93929   0.67847   1.000
    O2608   O    0.93929   0.92156   0.67847   1.000
    O2609   O    0.46068   0.93929   0.67847   1.000
    O2610   O    0.46067   0.92156   0.67847   1.000
    O2611   O    0.93929   0.46068   0.67847   1.000
    O2612   O    0.92156   0.46068   0.67847   1.000
    O2613   O    0.45256   0.94483   0.70205   1.000
    O2614   O    0.45256   0.90055   0.70205   1.000
    O2615   O    0.90055   0.94483   0.70205   1.000
    O2616   O    0.94482   0.45256   0.70205   1.000
    O2617   O    0.94482   0.90055   0.70205   1.000
    O2618   O    0.90055   0.45256   0.70205   1.000
    O2619   O    0.28673   0.74777   0.69649   1.000
    O2620   O    0.26901   0.74777   0.69649   1.000
    O2621   O    0.28673   0.26901   0.69649   1.000
    O2622   O    0.26901   0.28673   0.69649   1.000
    O2623   O    0.74777   0.26901   0.69649   1.000
    O2624   O    0.74778   0.28673   0.69649   1.000
    O2625   O    0.29121   0.74180   0.72003   1.000
    O2626   O    0.74180   0.24696   0.72003   1.000
    O2627   O    0.24696   0.74180   0.72003   1.000
    O2628   O    0.29121   0.24696   0.72003   1.000
    O2629   O    0.24696   0.29121   0.72003   1.000
    O2630   O    0.74180   0.29121   0.72003   1.000
    O2631   O    0.43194   0.89352   0.71655   1.000
    O2632   O    0.40518   0.90251   0.71757   1.000
    O2633   O    0.95799   0.89352   0.71655   1.000
    O2634   O    0.97475   0.90251   0.71757   1.000
    O2635   O    0.89353   0.43194   0.71655   1.000
    O2636   O    0.90251   0.40518   0.71757   1.000
    O2637   O    0.89352   0.95799   0.71655   1.000
    O2638   O    0.90251   0.97475   0.71757   1.000
    O2639   O    0.95799   0.43194   0.71655   1.000
    O2640   O    0.97475   0.40518   0.71757   1.000
    O2641   O    0.43194   0.95799   0.71655   1.000
    O2642   O    0.40518   0.97475   0.71757   1.000
    O2643   O    0.46193   0.93008   0.72221   1.000
    O2644   O    0.43783   0.93141   0.72590   1.000
    O2645   O    0.44166   0.94354   0.73647   1.000
    O2646   O    0.88577   0.46193   0.72221   1.000
    O2647   O    0.90487   0.43783   0.72590   1.000
    O2648   O    0.87834   0.44166   0.73647   1.000
    O2649   O    0.93008   0.46193   0.72221   1.000
    O2650   O    0.93141   0.43783   0.72590   1.000
    O2651   O    0.94354   0.44166   0.73647   1.000
    O2652   O    0.46194   0.88577   0.72221   1.000
    O2653   O    0.43783   0.90487   0.72590   1.000
    O2654   O    0.44166   0.87833   0.73647   1.000
    O2655   O    0.93008   0.88577   0.72221   1.000
    O2656   O    0.93141   0.90487   0.72590   1.000
    O2657   O    0.94354   0.87833   0.73647   1.000
    O2658   O    0.88577   0.93008   0.72221   1.000
    O2659   O    0.90487   0.93141   0.72590   1.000
    O2660   O    0.87833   0.94354   0.73647   1.000
    O2661   O    0.96840   0.91361   0.73030   1.000
    O2662   O    0.91361   0.38769   0.73030   1.000
    O2663   O    0.38769   0.96840   0.73030   1.000
    O2664   O    0.91361   0.96840   0.73030   1.000
    O2665   O    0.38769   0.91361   0.73030   1.000
    O2666   O    0.96840   0.38769   0.73030   1.000
    O2667   O    0.90475   0.88697   0.72589   1.000
    O2668   O    0.88697   0.90475   0.72589   1.000
    O2669   O    0.48240   0.90475   0.72589   1.000
    O2670   O    0.88697   0.48239   0.72589   1.000
    O2671   O    0.48239   0.88697   0.72589   1.000
    O2672   O    0.90475   0.48239   0.72589   1.000
    O2673   O    0.28033   0.20764   0.73016   1.000
    O2674   O    0.28881   0.22405   0.73264   1.000
    O2675   O    0.28033   0.78186   0.73016   1.000
    O2676   O    0.28881   0.75450   0.73264   1.000
    O2677   O    0.20764   0.28033   0.73016   1.000
    O2678   O    0.22405   0.28881   0.73264   1.000
    O2679   O    0.78186   0.28033   0.73016   1.000
    O2680   O    0.75449   0.28881   0.73264   1.000
    O2681   O    0.20764   0.78186   0.73016   1.000
    O2682   O    0.22405   0.75450   0.73264   1.000
    O2683   O    0.78186   0.20764   0.73016   1.000
    O2684   O    0.75450   0.22405   0.73264   1.000
    O2685   O    0.20553   0.79283   0.74101   1.000
    O2686   O    0.26063   0.79283   0.74101   1.000
    O2687   O    0.20553   0.26063   0.74101   1.000
    O2688   O    0.79283   0.26063   0.74101   1.000
    O2689   O    0.79283   0.20553   0.74101   1.000
    O2690   O    0.26063   0.20553   0.74101   1.000
    O2691   O    0.72002   0.24697   0.74180   1.000
    O2692   O    0.74300   0.24375   0.74300   1.000
    O2693   O    0.73264   0.22405   0.75450   1.000
    O2694   O    0.29121   0.24697   0.74180   1.000
    O2695   O    0.27026   0.24375   0.74300   1.000
    O2696   O    0.28881   0.22405   0.75450   1.000
    O2697   O    0.72002   0.29121   0.74180   1.000
    O2698   O    0.74299   0.27027   0.74300   1.000
    O2699   O    0.73263   0.28882   0.75450   1.000
    O2700   O    0.24696   0.72002   0.74180   1.000
    O2701   O    0.24374   0.74299   0.74300   1.000
    O2702   O    0.22405   0.73263   0.75450   1.000
    O2703   O    0.24696   0.29121   0.74180   1.000
    O2704   O    0.24374   0.27027   0.74300   1.000
    O2705   O    0.22405   0.28882   0.75450   1.000
    O2706   O    0.29121   0.72002   0.74180   1.000
    O2707   O    0.27026   0.74299   0.74300   1.000
    O2708   O    0.28881   0.73263   0.75450   1.000
    O2709   O    0.79809   0.81581   0.74279   1.000
    O2710   O    0.81581   0.79809   0.74279   1.000
    O2711   O    0.64332   0.79809   0.74279   1.000
    O2712   O    0.64332   0.81581   0.74279   1.000
    O2713   O    0.81581   0.64332   0.74279   1.000
    O2714   O    0.79808   0.64332   0.74279   1.000
    O2715   O    0.94205   0.92157   0.74802   1.000
    O2716   O    0.94205   0.38836   0.74802   1.000
    O2717   O    0.92157   0.38836   0.74802   1.000
    O2718   O    0.92157   0.94205   0.74802   1.000
    O2719   O    0.38836   0.92157   0.74802   1.000
    O2720   O    0.38836   0.94205   0.74802   1.000
    O2721   O    0.28673   0.26901   0.74778   1.000
    O2722   O    0.26901   0.28673   0.74778   1.000
    O2723   O    0.28673   0.69649   0.74778   1.000
    O2724   O    0.69649   0.26901   0.74778   1.000
    O2725   O    0.69649   0.28673   0.74778   1.000
    O2726   O    0.26901   0.69649   0.74778   1.000
    O2727   O    0.82780   0.62563   0.76301   1.000
    O2728   O    0.78356   0.62563   0.76301   1.000
    O2729   O    0.62563   0.78356   0.76301   1.000
    O2730   O    0.78356   0.82781   0.76301   1.000
    O2731   O    0.62563   0.82781   0.76301   1.000
    O2732   O    0.82781   0.78356   0.76301   1.000
    O2733   O    0.21890   0.23955   0.75979   1.000
    O2734   O    0.21890   0.78177   0.75979   1.000
    O2735   O    0.23955   0.21890   0.75979   1.000
    O2736   O    0.23955   0.78177   0.75979   1.000
    O2737   O    0.78177   0.23955   0.75979   1.000
    O2738   O    0.78177   0.21890   0.75979   1.000
    O2739   O    0.94068   0.42808   0.76419   1.000
    O2740   O    0.94068   0.86705   0.76419   1.000
    O2741   O    0.42808   0.94068   0.76419   1.000
    O2742   O    0.42809   0.86705   0.76419   1.000
    O2743   O    0.86705   0.94068   0.76419   1.000
    O2744   O    0.86705   0.42808   0.76419   1.000
    O2745   O    0.90672   0.39830   0.76770   1.000
    O2746   O    0.92728   0.39830   0.76770   1.000
    O2747   O    0.39831   0.90672   0.76770   1.000
    O2748   O    0.39830   0.92729   0.76770   1.000
    O2749   O    0.90672   0.92729   0.76770   1.000
    O2750   O    0.92728   0.90672   0.76770   1.000
    O2751   O    0.58187   0.83640   0.76308   1.000
    O2752   O    0.58187   0.81865   0.76308   1.000
    O2753   O    0.81865   0.58187   0.76308   1.000
    O2754   O    0.83640   0.58187   0.76308   1.000
    O2755   O    0.83641   0.81865   0.76308   1.000
    O2756   O    0.81865   0.83640   0.76308   1.000
    O2757   O    0.52411   0.36303   0.76761   1.000
    O2758   O    0.52411   0.34525   0.76761   1.000
    O2759   O    0.34525   0.36303   0.76761   1.000
    O2760   O    0.36303   0.34525   0.76761   1.000
    O2761   O    0.36303   0.52411   0.76761   1.000
    O2762   O    0.34525   0.52411   0.76761   1.000
    O2763   O    0.59940   0.83659   0.77169   1.000
    O2764   O    0.79231   0.59940   0.77169   1.000
    O2765   O    0.83660   0.79231   0.77169   1.000
    O2766   O    0.59940   0.79231   0.77169   1.000
    O2767   O    0.79232   0.83659   0.77169   1.000
    O2768   O    0.83659   0.59940   0.77169   1.000
    O2769   O    0.21890   0.75978   0.78177   1.000
    O2770   O    0.23955   0.75978   0.78177   1.000
    O2771   O    0.75978   0.23955   0.78177   1.000
    O2772   O    0.75978   0.21890   0.78177   1.000
    O2773   O    0.21890   0.23955   0.78177   1.000
    O2774   O    0.23955   0.21890   0.78177   1.000
    O2775   O    0.73016   0.28033   0.78187   1.000
    O2776   O    0.20764   0.73016   0.78187   1.000
    O2777   O    0.73016   0.20764   0.78187   1.000
    O2778   O    0.28033   0.73016   0.78187   1.000
    O2779   O    0.20764   0.28033   0.78187   1.000
    O2780   O    0.28033   0.20764   0.78187   1.000
    O2781   O    0.31992   0.36423   0.78807   1.000
    O2782   O    0.36423   0.31992   0.78807   1.000
    O2783   O    0.52780   0.36423   0.78807   1.000
    O2784   O    0.52780   0.31992   0.78807   1.000
    O2785   O    0.36423   0.52780   0.78807   1.000
    O2786   O    0.31992   0.52780   0.78807   1.000
    O2787   O    0.87849   0.41082   0.77668   1.000
    O2788   O    0.41082   0.87849   0.77668   1.000
    O2789   O    0.41082   0.93402   0.77668   1.000
    O2790   O    0.87849   0.93402   0.77668   1.000
    O2791   O    0.93402   0.87849   0.77668   1.000
    O2792   O    0.93402   0.41082   0.77668   1.000
    O2793   O    0.62563   0.82780   0.78356   1.000
    O2794   O    0.59940   0.83660   0.79232   1.000
    O2795   O    0.76301   0.82780   0.78356   1.000
    O2796   O    0.78701   0.81353   0.78701   1.000
    O2797   O    0.77169   0.83660   0.79232   1.000
    O2798   O    0.76300   0.62563   0.78356   1.000
    O2799   O    0.78700   0.61246   0.78701   1.000
    O2800   O    0.77169   0.59940   0.79232   1.000
    O2801   O    0.62563   0.76300   0.78356   1.000
    O2802   O    0.61245   0.78701   0.78701   1.000
    O2803   O    0.59940   0.77169   0.79232   1.000
    O2804   O    0.82781   0.76300   0.78356   1.000
    O2805   O    0.83660   0.77169   0.79232   1.000
    O2806   O    0.82780   0.62563   0.78356   1.000
    O2807   O    0.81353   0.61246   0.78701   1.000
    O2808   O    0.83660   0.59940   0.79232   1.000
    O2809   O    0.57153   0.32844   0.78933   1.000
    O2810   O    0.57153   0.31070   0.78933   1.000
    O2811   O    0.32844   0.57153   0.78933   1.000
    O2812   O    0.31070   0.57153   0.78933   1.000
    O2813   O    0.32844   0.31070   0.78933   1.000
    O2814   O    0.31070   0.32844   0.78933   1.000
    O2815   O    0.81581   0.64333   0.79809   1.000
    O2816   O    0.64332   0.81581   0.79809   1.000
    O2817   O    0.81580   0.74279   0.79809   1.000
    O2818   O    0.64332   0.74279   0.79809   1.000
    O2819   O    0.74279   0.81581   0.79809   1.000
    O2820   O    0.74278   0.64333   0.79809   1.000
    O2821   O    0.54795   0.34945   0.79744   1.000
    O2822   O    0.34945   0.54795   0.79744   1.000
    O2823   O    0.54795   0.30518   0.79744   1.000
    O2824   O    0.30517   0.54795   0.79744   1.000
    O2825   O    0.34945   0.30518   0.79744   1.000
    O2826   O    0.30518   0.34945   0.79744   1.000
    O2827   O    0.74100   0.20553   0.79283   1.000
    O2828   O    0.26063   0.20553   0.79283   1.000
    O2829   O    0.20553   0.74100   0.79283   1.000
    O2830   O    0.20553   0.26063   0.79283   1.000
    O2831   O    0.26063   0.74100   0.79283   1.000
    O2832   O    0.74100   0.26063   0.79283   1.000
    O2833   O    0.61246   0.78701   0.81353   1.000
    O2834   O    0.78701   0.78701   0.81353   1.000
    O2835   O    0.51353   0.37166   0.80834   1.000
    O2836   O    0.52411   0.34513   0.81217   1.000
    O2837   O    0.53346   0.35648   0.81806   1.000
    O2838   O    0.30647   0.37166   0.80834   1.000
    O2839   O    0.31859   0.34513   0.81217   1.000
    O2840   O    0.29201   0.35648   0.81806   1.000
    O2841   O    0.51353   0.30647   0.80834   1.000
    O2842   O    0.52410   0.31860   0.81217   1.000
    O2843   O    0.53346   0.29201   0.81806   1.000
    O2844   O    0.37167   0.51353   0.80834   1.000
    O2845   O    0.34513   0.52410   0.81217   1.000
    O2846   O    0.35647   0.53346   0.81806   1.000
    O2847   O    0.30646   0.51353   0.80834   1.000
    O2848   O    0.31859   0.52410   0.81217   1.000
    O2849   O    0.29201   0.53346   0.81806   1.000
    O2850   O    0.37167   0.30647   0.80834   1.000
    O2851   O    0.34513   0.31860   0.81217   1.000
    O2852   O    0.35647   0.29201   0.81806   1.000
    O2853   O    0.58187   0.76307   0.81865   1.000
    O2854   O    0.76307   0.83641   0.81865   1.000
    O2855   O    0.83641   0.76307   0.81865   1.000
    O2856   O    0.83641   0.58187   0.81865   1.000
    O2857   O    0.58186   0.83641   0.81865   1.000
    O2858   O    0.76307   0.58187   0.81865   1.000
    O2859   O    0.79808   0.64332   0.81581   1.000
    O2860   O    0.74279   0.64332   0.81581   1.000
    O2861   O    0.79808   0.74279   0.81581   1.000
    O2862   O    0.64332   0.79809   0.81581   1.000
    O2863   O    0.64332   0.74279   0.81581   1.000
    O2864   O    0.74279   0.79809   0.81581   1.000
    O2865   O    0.48581   0.38295   0.82192   1.000
    O2866   O    0.38295   0.48581   0.82192   1.000
    O2867   O    0.38295   0.30932   0.82192   1.000
    O2868   O    0.30932   0.38295   0.82192   1.000
    O2869   O    0.48581   0.30932   0.82192   1.000
    O2870   O    0.30932   0.48581   0.82192   1.000
    O2871   O    0.78356   0.62563   0.82781   1.000
    O2872   O    0.62563   0.78356   0.82781   1.000
    O2873   O    0.78356   0.76301   0.82781   1.000
    O2874   O    0.76300   0.62563   0.82781   1.000
    O2875   O    0.62563   0.76301   0.82781   1.000
    O2876   O    0.76301   0.78356   0.82781   1.000
    O2877   O    0.47332   0.31598   0.83918   1.000
    O2878   O    0.31598   0.37151   0.83918   1.000
    O2879   O    0.47333   0.37151   0.83918   1.000
    O2880   O    0.31598   0.47332   0.83918   1.000
    O2881   O    0.37151   0.31598   0.83918   1.000
    O2882   O    0.37151   0.47332   0.83918   1.000
    O2883   O    0.76307   0.58186   0.83641   1.000
    O2884   O    0.81865   0.58186   0.83641   1.000
    O2885   O    0.81865   0.76307   0.83641   1.000
    O2886   O    0.58187   0.76307   0.83641   1.000
    O2887   O    0.58187   0.81865   0.83641   1.000
    O2888   O    0.76307   0.81865   0.83641   1.000
    O2889   O    0.77169   0.59940   0.83660   1.000
    O2890   O    0.79231   0.59940   0.83660   1.000
    O2891   O    0.77169   0.79231   0.83660   1.000
    O2892   O    0.79231   0.77169   0.83660   1.000
    O2893   O    0.59940   0.79231   0.83660   1.000
    O2894   O    0.59940   0.77169   0.83660   1.000
    O2895   O    0.34749   0.27525   0.84482   1.000
    O2896   O    0.27525   0.53243   0.84482   1.000
    O2897   O    0.27525   0.34749   0.84482   1.000
    O2898   O    0.53243   0.34749   0.84482   1.000
    O2899   O    0.34749   0.53243   0.84482   1.000
    O2900   O    0.53243   0.27525   0.84482   1.000
    O2901   O    0.34328   0.32272   0.85170   1.000
    O2902   O    0.32271   0.34328   0.85170   1.000
    O2903   O    0.48231   0.34328   0.85170   1.000
    O2904   O    0.34328   0.48230   0.85170   1.000
    O2905   O    0.32271   0.48230   0.85170   1.000
    O2906   O    0.48230   0.32272   0.85170   1.000
    O2907   O    0.32843   0.30795   0.86164   1.000
    O2908   O    0.30795   0.32843   0.86164   1.000
    O2909   O    0.50198   0.30795   0.86164   1.000
    O2910   O    0.50198   0.32843   0.86164   1.000
    O2911   O    0.32843   0.50198   0.86164   1.000
    O2912   O    0.30795   0.50198   0.86164   1.000
    O2913   O    0.33639   0.51970   0.86231   1.000
    O2914   O    0.33639   0.28160   0.86231   1.000
    O2915   O    0.51970   0.33639   0.86231   1.000
    O2916   O    0.51970   0.28160   0.86231   1.000
    O2917   O    0.28160   0.33639   0.86231   1.000
    O2918   O    0.28160   0.51970   0.86231   1.000
    O2919   O    0.76419   0.42808   0.86705   1.000
    O2920   O    0.73647   0.44166   0.87833   1.000
    O2921   O    0.42808   0.76419   0.86705   1.000
    O2922   O    0.44166   0.73647   0.87833   1.000
    O2923   O    0.76419   0.94068   0.86705   1.000
    O2924   O    0.73647   0.94353   0.87833   1.000
    O2925   O    0.94068   0.42808   0.86705   1.000
    O2926   O    0.94354   0.44166   0.87833   1.000
    O2927   O    0.94068   0.76419   0.86705   1.000
    O2928   O    0.94354   0.73647   0.87833   1.000
    O2929   O    0.42809   0.94068   0.86705   1.000
    O2930   O    0.44166   0.94353   0.87833   1.000
    O2931   O    0.93402   0.41082   0.87849   1.000
    O2932   O    0.77667   0.93402   0.87849   1.000
    O2933   O    0.93402   0.77667   0.87849   1.000
    O2934   O    0.41082   0.77667   0.87849   1.000
    O2935   O    0.77668   0.41082   0.87849   1.000
    O2936   O    0.41082   0.93402   0.87849   1.000
    O2937   O    0.46194   0.93008   0.88577   1.000
    O2938   O    0.48240   0.90475   0.88697   1.000
    O2939   O    0.72220   0.46194   0.88577   1.000
    O2940   O    0.72589   0.48240   0.88697   1.000
    O2941   O    0.46193   0.72221   0.88577   1.000
    O2942   O    0.48239   0.72589   0.88697   1.000
    O2943   O    0.72220   0.93008   0.88577   1.000
    O2944   O    0.72589   0.90475   0.88697   1.000
    O2945   O    0.93008   0.72221   0.88577   1.000
    O2946   O    0.90475   0.72589   0.88697   1.000
    O2947   O    0.93008   0.46194   0.88577   1.000
    O2948   O    0.90475   0.48240   0.88697   1.000
    O2949   O    0.14304   0.31055   0.88726   1.000
    O2950   O    0.13352   0.33107   0.89791   1.000
    O2951   O    0.31055   0.14305   0.88726   1.000
    O2952   O    0.33107   0.13352   0.89791   1.000
    O2953   O    0.65916   0.14305   0.88726   1.000
    O2954   O    0.63750   0.13352   0.89791   1.000
    O2955   O    0.14305   0.65915   0.88726   1.000
    O2956   O    0.13353   0.63750   0.89791   1.000
    O2957   O    0.65915   0.31055   0.88726   1.000
    O2958   O    0.63750   0.33107   0.89791   1.000
    O2959   O    0.31055   0.65915   0.88726   1.000
    O2960   O    0.33107   0.63750   0.89791   1.000
    O2961   O    0.13900   0.67054   0.89871   1.000
    O2962   O    0.67054   0.29175   0.89871   1.000
    O2963   O    0.67054   0.13900   0.89871   1.000
    O2964   O    0.13900   0.29175   0.89871   1.000
    O2965   O    0.29175   0.13900   0.89871   1.000
    O2966   O    0.29175   0.67054   0.89871   1.000
    O2967   O    0.76770   0.92729   0.90672   1.000
    O2968   O    0.39830   0.92729   0.90672   1.000
    O2969   O    0.92728   0.76770   0.90672   1.000
    O2970   O    0.76770   0.39831   0.90672   1.000
    O2971   O    0.39831   0.76770   0.90672   1.000
    O2972   O    0.92729   0.39831   0.90672   1.000
    O2973   O    0.95799   0.71654   0.89353   1.000
    O2974   O    0.94482   0.70205   0.90056   1.000
    O2975   O    0.93141   0.72589   0.90487   1.000
    O2976   O    0.71654   0.95799   0.89353   1.000
    O2977   O    0.70205   0.94482   0.90056   1.000
    O2978   O    0.72589   0.93141   0.90487   1.000
    O2979   O    0.43194   0.71654   0.89353   1.000
    O2980   O    0.45256   0.70205   0.90056   1.000
    O2981   O    0.43783   0.72589   0.90487   1.000
    O2982   O    0.43194   0.95799   0.89353   1.000
    O2983   O    0.45256   0.94482   0.90056   1.000
    O2984   O    0.43783   0.93141   0.90487   1.000
    O2985   O    0.71655   0.43194   0.89353   1.000
    O2986   O    0.70205   0.45256   0.90056   1.000
    O2987   O    0.72589   0.43783   0.90487   1.000
    O2988   O    0.95799   0.43194   0.89353   1.000
    O2989   O    0.94482   0.45256   0.90056   1.000
    O2990   O    0.93141   0.43783   0.90487   1.000
    O2991   O    0.48240   0.72589   0.90475   1.000
    O2992   O    0.88697   0.72589   0.90475   1.000
    O2993   O    0.72588   0.48240   0.90475   1.000
    O2994   O    0.88697   0.48240   0.90475   1.000
    O2995   O    0.48239   0.88697   0.90475   1.000
    O2996   O    0.72589   0.88697   0.90475   1.000
    O2997   O    0.71756   0.40518   0.90251   1.000
    O2998   O    0.40518   0.97475   0.90251   1.000
    O2999   O    0.97475   0.71756   0.90251   1.000
    O3000   O    0.40518   0.71756   0.90251   1.000
    O3001   O    0.97475   0.40518   0.90251   1.000
    O3002   O    0.71756   0.97475   0.90251   1.000
    O3003   O    0.33986   0.61222   0.90675   1.000
    O3004   O    0.33385   0.59067   0.91079   1.000
    O3005   O    0.61221   0.14119   0.90675   1.000
    O3006   O    0.59068   0.16471   0.91079   1.000
    O3007   O    0.14119   0.33986   0.90675   1.000
    O3008   O    0.16470   0.33385   0.91079   1.000
    O3009   O    0.33986   0.14119   0.90675   1.000
    O3010   O    0.33385   0.16471   0.91079   1.000
    O3011   O    0.61222   0.33986   0.90675   1.000
    O3012   O    0.59068   0.33385   0.91079   1.000
    O3013   O    0.14119   0.61222   0.90675   1.000
    O3014   O    0.16470   0.59067   0.91079   1.000
    O3015   O    0.73030   0.96840   0.91361   1.000
    O3016   O    0.38769   0.73030   0.91361   1.000
    O3017   O    0.96840   0.73030   0.91361   1.000
    O3018   O    0.38769   0.96840   0.91361   1.000
    O3019   O    0.96840   0.38769   0.91361   1.000
    O3020   O    0.73030   0.38769   0.91361   1.000
    O3021   O    0.63779   0.10881   0.91014   1.000
    O3022   O    0.61250   0.11647   0.91893   1.000
    O3023   O    0.62500   0.12500   0.92464   1.000
    O3024   O    0.34326   0.10881   0.91014   1.000
    O3025   O    0.35209   0.11647   0.91893   1.000
    O3026   O    0.32536   0.12500   0.92464   1.000
    O3027   O    0.10881   0.63779   0.91014   1.000
    O3028   O    0.11647   0.61250   0.91893   1.000
    O3029   O    0.12500   0.62500   0.92464   1.000
    O3030   O    0.63779   0.34326   0.91014   1.000
    O3031   O    0.61250   0.35209   0.91893   1.000
    O3032   O    0.62500   0.32537   0.92464   1.000
    O3033   O    0.10882   0.34326   0.91014   1.000
    O3034   O    0.11647   0.35209   0.91893   1.000
    O3035   O    0.12500   0.32537   0.92464   1.000
    O3036   O    0.34326   0.63779   0.91014   1.000
    O3037   O    0.35209   0.61250   0.91893   1.000
    O3038   O    0.32537   0.62500   0.92464   1.000
    O3039   O    0.12409   0.66523   0.92680   1.000
    O3040   O    0.12409   0.28387   0.92680   1.000
    O3041   O    0.66523   0.12410   0.92680   1.000
    O3042   O    0.28387   0.66523   0.92680   1.000
    O3043   O    0.28387   0.12410   0.92680   1.000
    O3044   O    0.66524   0.28387   0.92680   1.000
    O3045   O    0.67847   0.93929   0.92156   1.000
    O3046   O    0.93930   0.46068   0.92156   1.000
    O3047   O    0.93930   0.67847   0.92156   1.000
    O3048   O    0.46067   0.67847   0.92156   1.000
    O3049   O    0.67847   0.46068   0.92156   1.000
    O3050   O    0.46067   0.93929   0.92156   1.000
    O3051   O    0.65932   0.08529   0.91616   1.000
    O3052   O    0.08529   0.65932   0.91616   1.000
    O3053   O    0.65933   0.33921   0.91616   1.000
    O3054   O    0.33921   0.65932   0.91616   1.000
    O3055   O    0.08529   0.33921   0.91616   1.000
    O3056   O    0.33921   0.08529   0.91616   1.000
    O3057   O    0.72220   0.46193   0.93009   1.000
    O3058   O    0.72221   0.88577   0.93009   1.000
    O3059   O    0.88577   0.72220   0.93009   1.000
    O3060   O    0.46194   0.88577   0.93009   1.000
    O3061   O    0.88577   0.46193   0.93009   1.000
    O3062   O    0.46194   0.72220   0.93009   1.000
    O3063   O    0.57982   0.16897   0.92944   1.000
    O3064   O    0.57983   0.32177   0.92944   1.000
    O3065   O    0.16897   0.32177   0.92944   1.000
    O3066   O    0.32177   0.16897   0.92944   1.000
    O3067   O    0.16897   0.57982   0.92944   1.000
    O3068   O    0.32177   0.57982   0.92944   1.000
    O3069   O    0.74802   0.38836   0.92157   1.000
    O3070   O    0.94205   0.38836   0.92157   1.000
    O3071   O    0.94205   0.74802   0.92157   1.000
    O3072   O    0.38836   0.74802   0.92157   1.000
    O3073   O    0.38836   0.94205   0.92157   1.000
    O3074   O    0.74802   0.94205   0.92157   1.000
    O3075   O    0.43783   0.72590   0.93141   1.000
    O3076   O    0.72590   0.43783   0.93141   1.000
    O3077   O    0.72589   0.90487   0.93141   1.000
    O3078   O    0.90487   0.43783   0.93141   1.000
    O3079   O    0.43783   0.90487   0.93141   1.000
    O3080   O    0.90487   0.72590   0.93141   1.000
    O3081   O    0.08103   0.32056   0.92823   1.000
    O3082   O    0.67018   0.32056   0.92823   1.000
    O3083   O    0.32056   0.08103   0.92823   1.000
    O3084   O    0.32056   0.67018   0.92823   1.000
    O3085   O    0.67017   0.08103   0.92823   1.000
    O3086   O    0.08103   0.67018   0.92823   1.000
    O3087   O    0.90672   0.76770   0.92729   1.000
    O3088   O    0.92157   0.74802   0.94205   1.000
    O3089   O    0.76770   0.90672   0.92729   1.000
    O3090   O    0.74802   0.92157   0.94205   1.000
    O3091   O    0.39830   0.90672   0.92729   1.000
    O3092   O    0.38836   0.92157   0.94205   1.000
    O3093   O    0.76769   0.39830   0.92729   1.000
    O3094   O    0.74802   0.38836   0.94205   1.000
    O3095   O    0.39830   0.76770   0.92729   1.000
    O3096   O    0.38836   0.74802   0.94205   1.000
    O3097   O    0.90672   0.39830   0.92729   1.000
    O3098   O    0.92157   0.38836   0.94205   1.000
    O3099   O    0.10696   0.59085   0.93945   1.000
    O3100   O    0.10695   0.36275   0.93945   1.000
    O3101   O    0.59084   0.10695   0.93945   1.000
    O3102   O    0.36274   0.10695   0.93945   1.000
    O3103   O    0.59084   0.36275   0.93945   1.000
    O3104   O    0.36275   0.59085   0.93945   1.000
    O3105   O    0.41082   0.77668   0.93402   1.000
    O3106   O    0.77667   0.87849   0.93402   1.000
    O3107   O    0.87849   0.41082   0.93402   1.000
    O3108   O    0.87849   0.77668   0.93402   1.000
    O3109   O    0.77667   0.41082   0.93402   1.000
    O3110   O    0.41082   0.87849   0.93402   1.000
    O3111   O    0.67847   0.92156   0.93930   1.000
    O3112   O    0.46068   0.92156   0.93930   1.000
    O3113   O    0.92156   0.46067   0.93930   1.000
    O3114   O    0.67847   0.46067   0.93930   1.000
    O3115   O    0.92156   0.67847   0.93930   1.000
    O3116   O    0.46068   0.67847   0.93930   1.000
    O3117   O    0.09917   0.29619   0.93966   1.000
    O3118   O    0.09916   0.66499   0.93966   1.000
    O3119   O    0.66499   0.29619   0.93966   1.000
    O3120   O    0.29620   0.09917   0.93966   1.000
    O3121   O    0.66498   0.09917   0.93966   1.000
    O3122   O    0.29620   0.66499   0.93966   1.000
    O3123   O    0.42809   0.76419   0.94068   1.000
    O3124   O    0.86705   0.76419   0.94068   1.000
    O3125   O    0.76419   0.42808   0.94068   1.000
    O3126   O    0.42809   0.86705   0.94068   1.000
    O3127   O    0.76419   0.86705   0.94068   1.000
    O3128   O    0.86705   0.42808   0.94068   1.000
    O3129   O    0.11961   0.64135   0.94208   1.000
    O3130   O    0.13039   0.30793   0.95304   1.000
    O3131   O    0.64135   0.11961   0.94208   1.000
    O3132   O    0.29696   0.64135   0.94208   1.000
    O3133   O    0.64135   0.29696   0.94208   1.000
    O3134   O    0.30792   0.13039   0.95304   1.000
    O3135   O    0.58502   0.15083   0.95381   1.000
    O3136   O    0.31034   0.15083   0.95381   1.000
    O3137   O    0.58501   0.31034   0.95381   1.000
    O3138   O    0.15084   0.31034   0.95381   1.000
    O3139   O    0.31034   0.58502   0.95381   1.000
    O3140   O    0.15084   0.58502   0.95381   1.000
    O3141   O    0.87833   0.44166   0.94354   1.000
    O3142   O    0.90055   0.45256   0.94483   1.000
    O3143   O    0.89353   0.43194   0.95799   1.000
    O3144   O    0.44166   0.73646   0.94354   1.000
    O3145   O    0.45256   0.70205   0.94483   1.000
    O3146   O    0.43194   0.71654   0.95799   1.000
    O3147   O    0.73646   0.44166   0.94354   1.000
    O3148   O    0.70205   0.45256   0.94483   1.000
    O3149   O    0.71654   0.43194   0.95799   1.000
    O3150   O    0.73646   0.87833   0.94354   1.000
    O3151   O    0.70205   0.90055   0.94483   1.000
    O3152   O    0.71654   0.89352   0.95799   1.000
    O3153   O    0.87834   0.73646   0.94354   1.000
    O3154   O    0.90055   0.70205   0.94483   1.000
    O3155   O    0.89352   0.71654   0.95799   1.000
    O3156   O    0.44166   0.87833   0.94354   1.000
    O3157   O    0.45256   0.90055   0.94483   1.000
    O3158   O    0.43194   0.89352   0.95799   1.000
    O3159   O    0.27005   0.65226   0.94888   1.000
    O3160   O    0.28241   0.65220   0.96185   1.000
    O3161   O    0.65226   0.27005   0.94888   1.000
    O3162   O    0.65220   0.28241   0.96185   1.000
    O3163   O    0.27005   0.12882   0.94888   1.000
    O3164   O    0.28241   0.10354   0.96185   1.000
    O3165   O    0.12882   0.65226   0.94888   1.000
    O3166   O    0.10354   0.65220   0.96185   1.000
    O3167   O    0.12882   0.27005   0.94888   1.000
    O3168   O    0.10354   0.28241   0.96185   1.000
    O3169   O    0.65225   0.12882   0.94888   1.000
    O3170   O    0.65220   0.10354   0.96185   1.000
    O3171   O    0.57946   0.11100   0.95825   1.000
    O3172   O    0.11100   0.57946   0.95825   1.000
    O3173   O    0.35130   0.57946   0.95825   1.000
    O3174   O    0.57946   0.35130   0.95825   1.000
    O3175   O    0.35130   0.11100   0.95825   1.000
    O3176   O    0.11100   0.35130   0.95825   1.000
    O3177   O    0.63591   0.25466   0.95805   1.000
    O3178   O    0.15138   0.25466   0.95805   1.000
    O3179   O    0.15138   0.63591   0.95805   1.000
    O3180   O    0.25466   0.15138   0.95805   1.000
    O3181   O    0.25465   0.63591   0.95805   1.000
    O3182   O    0.63591   0.15138   0.95805   1.000
    O3183   O    0.50820   0.00304   0.95879   1.000
    O3184   O    0.50223   0.98099   0.96327   1.000
    O3185   O    0.52998   0.00304   0.95879   1.000
    O3186   O    0.55351   0.98099   0.96327   1.000
    O3187   O    0.50820   0.52997   0.95879   1.000
    O3188   O    0.50222   0.55351   0.96327   1.000
    O3189   O    0.52997   0.50820   0.95879   1.000
    O3190   O    0.55351   0.50222   0.96327   1.000
    O3191   O    0.00304   0.52997   0.95879   1.000
    O3192   O    0.98100   0.55351   0.96327   1.000
    O3193   O    0.00303   0.50820   0.95879   1.000
    O3194   O    0.98100   0.50222   0.96327   1.000
    O3195   O    0.38769   0.73029   0.96840   1.000
    O3196   O    0.73029   0.91361   0.96840   1.000
    O3197   O    0.73029   0.38769   0.96840   1.000
    O3198   O    0.38769   0.91361   0.96840   1.000
    O3199   O    0.91361   0.38769   0.96840   1.000
    O3200   O    0.91361   0.73029   0.96840   1.000
    O3201   O    0.49550   0.02595   0.96119   1.000
    O3202   O    0.51736   0.02595   0.96119   1.000
    O3203   O    0.50701   0.00625   0.97974   1.000
    O3204   O    0.02595   0.51736   0.96119   1.000
    O3205   O    0.02595   0.49551   0.96119   1.000
    O3206   O    0.00626   0.50700   0.97974   1.000
    O3207   O    0.49550   0.51736   0.96119   1.000
    O3208   O    0.51737   0.49551   0.96119   1.000
    O3209   O    0.50700   0.50700   0.97974   1.000
    O3210   O    0.04236   0.51984   0.96967   1.000
    O3211   O    0.46813   0.51984   0.96967   1.000
    O3212   O    0.04236   0.46813   0.96967   1.000
    O3213   O    0.46814   0.04236   0.96967   1.000
    O3214   O    0.51984   0.46813   0.96967   1.000
    O3215   O    0.51984   0.04236   0.96967   1.000
    O3216   O    0.15825   0.61415   0.96580   1.000
    O3217   O    0.26179   0.15825   0.96580   1.000
    O3218   O    0.26179   0.61415   0.96580   1.000
    O3219   O    0.61416   0.15825   0.96580   1.000
    O3220   O    0.61416   0.26179   0.96580   1.000
    O3221   O    0.15825   0.26179   0.96580   1.000
    O3222   O    0.32320   0.58476   0.96613   1.000
    O3223   O    0.58477   0.32320   0.96613   1.000
    O3224   O    0.58476   0.12590   0.96613   1.000
    O3225   O    0.12591   0.32320   0.96613   1.000
    O3226   O    0.12590   0.58476   0.96613   1.000
    O3227   O    0.32320   0.12590   0.96613   1.000
    O3228   O    0.28815   0.14646   0.96759   1.000
    O3229   O    0.30113   0.12118   0.97995   1.000
    O3230   O    0.14646   0.28815   0.96759   1.000
    O3231   O    0.12118   0.30112   0.97995   1.000
    O3232   O    0.59780   0.14646   0.96759   1.000
    O3233   O    0.59774   0.12118   0.97995   1.000
    O3234   O    0.28815   0.59780   0.96759   1.000
    O3235   O    0.30112   0.59774   0.97995   1.000
    O3236   O    0.59780   0.28815   0.96759   1.000
    O3237   O    0.59774   0.30112   0.97995   1.000
    O3238   O    0.14646   0.59780   0.96759   1.000
    O3239   O    0.12118   0.59774   0.97995   1.000
    O3240   O    0.55351   0.96327   0.98100   1.000
    O3241   O    0.96327   0.50222   0.98100   1.000
    O3242   O    0.55351   0.50222   0.98100   1.000
    O3243   O    0.96327   0.55351   0.98100   1.000
    O3244   O    0.50223   0.96327   0.98100   1.000
    O3245   O    0.50222   0.55351   0.98100   1.000
    O3246   O    0.90251   0.71756   0.97475   1.000
    O3247   O    0.71757   0.90251   0.97475   1.000
    O3248   O    0.40518   0.71756   0.97475   1.000
    O3249   O    0.90251   0.40518   0.97475   1.000
    O3250   O    0.40518   0.90251   0.97475   1.000
    O3251   O    0.71757   0.40518   0.97475   1.000
    O3252   O    0.09175   0.63584   0.98821   1.000
    O3253   O    0.09175   0.28420   0.98821   1.000
    O3254   O    0.63584   0.28420   0.98821   1.000
    O3255   O    0.63585   0.09175   0.98821   1.000
    O3256   O    0.28420   0.63584   0.98821   1.000
    O3257   O    0.28420   0.09175   0.98821   1.000
    O3258   O    0.09861   0.29195   0.99535   1.000
    O3259   O    0.61409   0.29195   0.99535   1.000
    O3260   O    0.29195   0.61409   0.99535   1.000
    O3261   O    0.29195   0.09861   0.99535   1.000
    O3262   O    0.61409   0.09861   0.99535   1.000
    O3263   O    0.09862   0.61409   0.99535   1.000
    O3264   O    0.11961   0.29696   0.64135   1.000
    O3265   O    0.29696   0.11961   0.94208   1.000
    O3266   O    0.64135   0.94208   0.11962   1.000
    O3267   O    0.95304   0.60865   0.30793   1.000
    O3268   O    0.60865   0.13038   0.30793   1.000
    O3269   O    0.94207   0.29696   0.11962   1.000
    O3270   O    0.13039   0.60865   0.95304   1.000
    O3271   O    0.30792   0.95304   0.60865   1.000
    O3272   O    0.29696   0.64135   0.11962   1.000
    O3273   O    0.11961   0.94208   0.29696   1.000
    O3274   O    0.95304   0.13038   0.60865   1.000
    O3275   O    0.60865   0.30793   0.95304   1.000
    O3276   O    0.13038   0.95304   0.60865   1.000
    O3277   O    0.94207   0.11961   0.29696   1.000
    O3278   O    0.60865   0.30792   0.13039   1.000
    O3279   O    0.30792   0.60865   0.95304   1.000
    O3280   O    0.60865   0.13039   0.95304   1.000
    O3281   O    0.29696   0.94208   0.11962   1.000
    O3282   O    0.13038   0.60865   0.30793   1.000
    O3283   O    0.95304   0.30793   0.60865   1.000
    O3284   O    0.94208   0.64135   0.11962   1.000
    O3285   O    0.11962   0.29696   0.94208   1.000
    O3286   O    0.29696   0.11962   0.64135   1.000
    O3287   O    0.64135   0.94208   0.29696   1.000
    O3288   O    0.24070   0.24070   0.75930   1.000
    O3289   O    0.75930   0.75930   0.24070   1.000
    O3290   O    0.75930   0.24070   0.24070   1.000
    O3291   O    0.24070   0.75930   0.75930   1.000
    O3292   O    0.24070   0.75930   0.24070   1.000
    O3293   O    0.75930   0.24070   0.75930   1.000
    O3294   O    0.00930   0.00930   0.49070   1.000
    O3295   O    0.49070   0.49070   0.00930   1.000
    O3296   O    0.49070   0.00930   0.49070   1.000
    O3297   O    0.00930   0.49070   0.00930   1.000
    O3298   O    0.00930   0.49070   0.49070   1.000
    O3299   O    0.49070   0.00930   0.00930   1.000
    O3300   O    0.32819   0.32818   0.50536   1.000
    O3301   O    0.32819   0.32818   0.83826   1.000
    O3302   O    0.50536   0.83826   0.32819   1.000
    O3303   O    0.83826   0.50536   0.32819   1.000
    O3304   O    0.50536   0.32818   0.32819   1.000
    O3305   O    0.83826   0.32818   0.32819   1.000
    O3306   O    0.32818   0.50536   0.83826   1.000
    O3307   O    0.32819   0.83826   0.50536   1.000
    O3308   O    0.32819   0.50536   0.32819   1.000
    O3309   O    0.32819   0.83826   0.32819   1.000
    O3310   O    0.83826   0.32818   0.50536   1.000
    O3311   O    0.50536   0.32818   0.83826   1.000
    O3312   O    0.92182   0.92182   0.41174   1.000
    O3313   O    0.92182   0.92182   0.74464   1.000
    O3314   O    0.74464   0.41174   0.92182   1.000
    O3315   O    0.41174   0.74464   0.92182   1.000
    O3316   O    0.74464   0.92182   0.41174   1.000
    O3317   O    0.41174   0.92182   0.74464   1.000
    O3318   O    0.92182   0.74464   0.92182   1.000
    O3319   O    0.92182   0.41174   0.92182   1.000
    O3320   O    0.92181   0.74464   0.41174   1.000
    O3321   O    0.92181   0.41174   0.74464   1.000
    O3322   O    0.41174   0.92181   0.92182   1.000
    O3323   O    0.74464   0.92181   0.92182   1.000
    O3324   O    0.43647   0.46299   0.46300   1.000
    O3325   O    0.43647   0.46299   0.63755   1.000
    O3326   O    0.43647   0.63754   0.46300   1.000
    O3327   O    0.63755   0.46299   0.43647   1.000
    O3328   O    0.81353   0.78701   0.61246   1.000
    O3329   O    0.81353   0.78701   0.78701   1.000
    O3330   O    0.78701   0.61246   0.81353   1.000
    O3331   O    0.61245   0.81353   0.78701   1.000
    N3332   N    0.84017   0.70130   0.28584   1.000
    O3333   O    0.82234   0.71312   0.28073   1.000
    O3334   O    0.85799   0.68905   0.29092   1.000
    N3335   N    0.84017   0.17270   0.70130   1.000
    O3336   O    0.82234   0.18381   0.71312   1.000
    O3337   O    0.85799   0.16204   0.68905   1.000
    N3338   N    0.76750   0.29891   0.29891   1.000
    O3339   O    0.76062   0.29187   0.29187   1.000
    O3340   O    0.77483   0.30588   0.30588   1.000
    N3341   N    0.31080   0.42906   0.83108   1.000
    O3342   O    0.31119   0.41168   0.83096   1.000
    O3343   O    0.31119   0.44617   0.83096   1.000
    N3344   N    0.28584   0.70130   0.17270   1.000
    O3345   O    0.29092   0.68905   0.16204   1.000
    O3346   O    0.28073   0.71312   0.18381   1.000
    N3347   N    0.33655   0.88865   0.22204   1.000
    O3348   O    0.33368   0.89953   0.20340   1.000
    O3349   O    0.33862   0.87700   0.24096   1.000
    N3350   N    0.83108   0.42906   0.31080   1.000
    O3351   O    0.83096   0.44617   0.31119   1.000
    O3352   O    0.83096   0.41168   0.31119   1.000
    N3353   N    0.29891   0.63468   0.29891   1.000
    O3354   O    0.29187   0.65564   0.29187   1.000
    O3355   O    0.30588   0.61342   0.30588   1.000
    N3356   N    0.20501   0.62494   0.96505   1.000
    O3357   O    0.22275   0.62496   0.96440   1.000
    O3358   O    0.18789   0.62496   0.96440   1.000
    N3359   N    0.96505   0.20501   0.62494   1.000
    O3360   O    0.96440   0.22275   0.62496   1.000
    O3361   O    0.96440   0.18789   0.62496   1.000
    N3362   N    0.96416   0.07730   0.54870   1.000
    O3363   O    0.95908   0.08796   0.56095   1.000
    O3364   O    0.96927   0.06619   0.53688   1.000
    N3365   N    0.28495   0.04499   0.62506   1.000
    O3366   O    0.28560   0.02725   0.62504   1.000
    O3367   O    0.28560   0.06211   0.62504   1.000
    N3368   N    0.82094   0.41892   0.93920   1.000
    O3369   O    0.80383   0.41904   0.93881   1.000
    O3370   O    0.83832   0.41904   0.93881   1.000
    N3371   N    0.22204   0.33655   0.88865   1.000
    O3372   O    0.24096   0.33862   0.87700   1.000
    O3373   O    0.20339   0.33368   0.89953   1.000
    N3374   N    0.04499   0.04499   0.28495   1.000
    O3375   O    0.02725   0.06211   0.28560   1.000
    O3376   O    0.06211   0.02725   0.28560   1.000
    N3377   N    0.04499   0.28495   0.04499   1.000
    O3378   O    0.02725   0.28560   0.06211   1.000
    O3379   O    0.06211   0.28560   0.02725   1.000
    N3380   N    0.96416   0.54870   0.40983   1.000
    O3381   O    0.95908   0.56095   0.39201   1.000
    O3382   O    0.96927   0.53688   0.42766   1.000
    N3383   N    0.55826   0.55826   0.44174   1.000
    O3384   O    0.54109   0.57483   0.44204   1.000
    O3385   O    0.57483   0.54109   0.44204   1.000
    N3386   N    0.48250   0.95109   0.61532   1.000
    O3387   O    0.48938   0.95813   0.59436   1.000
    O3388   O    0.47517   0.94412   0.63658   1.000
    N3389   N    0.22203   0.55277   0.88865   1.000
    O3390   O    0.24096   0.54343   0.87700   1.000
    O3391   O    0.20339   0.56340   0.89953   1.000
    N3392   N    0.82094   0.82094   0.41892   1.000
    O3393   O    0.80383   0.83832   0.41904   1.000
    O3394   O    0.83832   0.80383   0.41904   1.000
    N3395   N    0.02797   0.36136   0.69723   1.000
    O3396   O    0.04661   0.35047   0.68660   1.000
    O3397   O    0.00904   0.37301   0.70657   1.000
    N3398   N    0.76750   0.29891   0.63468   1.000
    O3399   O    0.77483   0.30588   0.61342   1.000
    O3400   O    0.76062   0.29187   0.65564   1.000
    N3401   N    0.53372   0.74191   0.86218   1.000
    O3402   O    0.55008   0.74884   0.85054   1.000
    O3403   O    0.51667   0.73609   0.87362   1.000
    N3404   N    0.61532   0.48250   0.95109   1.000
    O3405   O    0.59436   0.48938   0.95813   1.000
    O3406   O    0.63658   0.47517   0.94412   1.000
    N3407   N    0.91345   0.69723   0.36136   1.000
    O3408   O    0.91632   0.68660   0.35047   1.000
    O3409   O    0.91138   0.70657   0.37301   1.000
    N3410   N    0.84017   0.70130   0.17270   1.000
    O3411   O    0.85799   0.68905   0.16204   1.000
    O3412   O    0.82234   0.71312   0.18381   1.000
    N3413   N    0.82094   0.93920   0.41892   1.000
    O3414   O    0.80383   0.93881   0.41904   1.000
    O3415   O    0.83832   0.93881   0.41904   1.000
    N3416   N    0.28584   0.17270   0.84017   1.000
    O3417   O    0.28073   0.18381   0.82234   1.000
    O3418   O    0.29092   0.16204   0.85799   1.000
    N3419   N    0.63468   0.76750   0.29891   1.000
    O3420   O    0.61342   0.77483   0.30588   1.000
    O3421   O    0.65564   0.76062   0.29187   1.000
    N3422   N    0.38782   0.71627   0.38782   1.000
    O3423   O    0.39946   0.69992   0.39946   1.000
    O3424   O    0.37638   0.73333   0.37638   1.000
    N3425   N    0.62494   0.20501   0.96505   1.000
    O3426   O    0.62496   0.18789   0.96440   1.000
    O3427   O    0.62496   0.22275   0.96440   1.000
    N3428   N    0.50809   0.38782   0.71628   1.000
    O3429   O    0.51391   0.37638   0.73333   1.000
    O3430   O    0.50116   0.39946   0.69992   1.000
    N3431   N    0.54870   0.07730   0.96416   1.000
    O3432   O    0.56095   0.08796   0.95908   1.000
    O3433   O    0.53688   0.06619   0.96927   1.000
    N3434   N    0.22203   0.88865   0.55277   1.000
    O3435   O    0.20339   0.89953   0.56340   1.000
    O3436   O    0.24096   0.87700   0.54343   1.000
    N3437   N    0.80826   0.69174   0.69174   1.000
    O3438   O    0.80796   0.70891   0.67517   1.000
    O3439   O    0.80796   0.67517   0.70891   1.000
    N3440   N    0.70130   0.84017   0.28584   1.000
    O3441   O    0.68905   0.85799   0.29092   1.000
    O3442   O    0.71312   0.82234   0.28073   1.000
    N3443   N    0.84017   0.28584   0.17270   1.000
    O3444   O    0.85799   0.29092   0.16204   1.000
    O3445   O    0.82234   0.28073   0.18381   1.000
    N3446   N    0.17270   0.28584   0.70130   1.000
    O3447   O    0.16204   0.29092   0.68905   1.000
    O3448   O    0.18381   0.28073   0.71312   1.000
    N3449   N    0.17270   0.28584   0.84017   1.000
    O3450   O    0.18381   0.28073   0.82234   1.000
    O3451   O    0.16204   0.29092   0.85799   1.000
    N3452   N    0.22204   0.33655   0.55277   1.000
    O3453   O    0.24096   0.33862   0.54343   1.000
    O3454   O    0.20340   0.33368   0.56340   1.000
    N3455   N    0.63468   0.29891   0.29891   1.000
    O3456   O    0.61342   0.30588   0.30588   1.000
    O3457   O    0.65564   0.29187   0.29187   1.000
    N3458   N    0.69723   0.91345   0.36136   1.000
    O3459   O    0.70657   0.91138   0.37301   1.000
    O3460   O    0.68660   0.91632   0.35047   1.000
    N3461   N    0.70130   0.84017   0.17270   1.000
    O3462   O    0.71312   0.82234   0.18381   1.000
    O3463   O    0.68905   0.85799   0.16204   1.000
    N3464   N    0.38782   0.38782   0.71628   1.000
    O3465   O    0.39946   0.39946   0.69992   1.000
    O3466   O    0.37638   0.37638   0.73333   1.000
    N3467   N    0.33655   0.55277   0.88865   1.000
    O3468   O    0.33862   0.54343   0.87700   1.000
    O3469   O    0.33368   0.56340   0.89953   1.000
    N3470   N    0.07730   0.54870   0.40983   1.000
    O3471   O    0.06619   0.53688   0.42766   1.000
    O3472   O    0.08796   0.56095   0.39201   1.000
    N3473   N    0.28495   0.62506   0.04499   1.000
    O3474   O    0.28560   0.62504   0.06211   1.000
    O3475   O    0.28560   0.62504   0.02725   1.000
    N3476   N    0.20501   0.20501   0.96505   1.000
    O3477   O    0.18789   0.22275   0.96440   1.000
    O3478   O    0.22275   0.18789   0.96440   1.000
    N3479   N    0.38782   0.38782   0.50809   1.000
    O3480   O    0.39946   0.39946   0.50116   1.000
    O3481   O    0.37638   0.37638   0.51391   1.000
    N3482   N    0.40983   0.54870   0.07730   1.000
    O3483   O    0.42766   0.53688   0.06619   1.000
    O3484   O    0.39201   0.56095   0.08796   1.000
    N3485   N    0.36135   0.91345   0.69723   1.000
    O3486   O    0.35047   0.91632   0.68660   1.000
    O3487   O    0.37300   0.91138   0.70657   1.000
    N3488   N    0.31080   0.42906   0.42906   1.000
    O3489   O    0.31119   0.41168   0.44617   1.000
    O3490   O    0.31119   0.44617   0.41168   1.000
    N3491   N    0.36135   0.69723   0.91345   1.000
    O3492   O    0.35047   0.68660   0.91632   1.000
    O3493   O    0.37300   0.70657   0.91138   1.000
    N3494   N    0.69723   0.02796   0.36136   1.000
    O3495   O    0.68660   0.04660   0.35047   1.000
    O3496   O    0.70657   0.00904   0.37301   1.000
    N3497   N    0.41892   0.82094   0.93920   1.000
    O3498   O    0.41904   0.80383   0.93881   1.000
    O3499   O    0.41904   0.83832   0.93881   1.000
    N3500   N    0.69723   0.36136   0.02797   1.000
    O3501   O    0.70657   0.37301   0.00904   1.000
    O3502   O    0.68660   0.35047   0.04661   1.000
    N3503   N    0.53373   0.86218   0.74191   1.000
    O3504   O    0.51667   0.87362   0.73609   1.000
    O3505   O    0.55008   0.85054   0.74884   1.000
    N3506   N    0.70130   0.28584   0.84017   1.000
    O3507   O    0.68905   0.29092   0.85799   1.000
    O3508   O    0.71312   0.28073   0.82234   1.000
    N3509   N    0.55277   0.22204   0.33655   1.000
    O3510   O    0.54343   0.24096   0.33862   1.000
    O3511   O    0.56340   0.20340   0.33368   1.000
    N3512   N    0.83108   0.31080   0.42906   1.000
    O3513   O    0.83096   0.31119   0.41168   1.000
    O3514   O    0.83096   0.31119   0.44617   1.000
    N3515   N    0.54870   0.96416   0.40983   1.000
    O3516   O    0.56095   0.95908   0.39201   1.000
    O3517   O    0.53688   0.96927   0.42766   1.000
    N3518   N    0.86218   0.74191   0.53373   1.000
    O3519   O    0.85054   0.74884   0.55008   1.000
    O3520   O    0.87362   0.73609   0.51667   1.000
    N3521   N    0.86218   0.86218   0.53373   1.000
    O3522   O    0.87362   0.87362   0.51667   1.000
    O3523   O    0.85054   0.85054   0.55008   1.000
    N3524   N    0.29891   0.29891   0.63468   1.000
    O3525   O    0.30588   0.30588   0.61342   1.000
    O3526   O    0.29187   0.29187   0.65564   1.000
    N3527   N    0.96416   0.07730   0.40983   1.000
    O3528   O    0.95908   0.08796   0.39201   1.000
    O3529   O    0.96927   0.06619   0.42766   1.000
    N3530   N    0.33655   0.22204   0.55277   1.000
    O3531   O    0.33368   0.20340   0.56340   1.000
    O3532   O    0.33862   0.24096   0.54343   1.000
    N3533   N    0.36136   0.69723   0.02797   1.000
    O3534   O    0.35047   0.68660   0.04661   1.000
    O3535   O    0.37300   0.70657   0.00904   1.000
    N3536   N    0.70130   0.17270   0.28584   1.000
    O3537   O    0.71312   0.18381   0.28073   1.000
    O3538   O    0.68905   0.16204   0.29092   1.000
    N3539   N    0.91345   0.36136   0.02797   1.000
    O3540   O    0.91138   0.37301   0.00904   1.000
    O3541   O    0.91632   0.35047   0.04661   1.000
    N3542   N    0.70130   0.28584   0.17270   1.000
    O3543   O    0.68905   0.29092   0.16204   1.000
    O3544   O    0.71312   0.28073   0.18381   1.000
    N3545   N    0.04499   0.62506   0.04499   1.000
    O3546   O    0.06211   0.62504   0.02725   1.000
    O3547   O    0.02725   0.62504   0.06211   1.000
    N3548   N    0.96416   0.54870   0.07730   1.000
    O3549   O    0.95908   0.56095   0.08796   1.000
    O3550   O    0.96927   0.53688   0.06619   1.000
    N3551   N    0.91345   0.36136   0.69723   1.000
    O3552   O    0.91632   0.35047   0.68660   1.000
    O3553   O    0.91138   0.37301   0.70657   1.000
    N3554   N    0.62506   0.28495   0.04499   1.000
    O3555   O    0.62504   0.28560   0.06211   1.000
    O3556   O    0.62504   0.28560   0.02725   1.000
    N3557   N    0.38782   0.50809   0.71628   1.000
    O3558   O    0.39946   0.50116   0.69992   1.000
    O3559   O    0.37638   0.51391   0.73333   1.000
    N3560   N    0.62506   0.04499   0.04499   1.000
    O3561   O    0.62504   0.02725   0.06211   1.000
    O3562   O    0.62504   0.06211   0.02725   1.000
    N3563   N    0.40983   0.07730   0.96416   1.000
    O3564   O    0.42766   0.06619   0.96927   1.000
    O3565   O    0.39201   0.08796   0.95908   1.000
    N3566   N    0.80826   0.80826   0.69174   1.000
    O3567   O    0.80796   0.80796   0.67517   1.000
    O3568   O    0.80796   0.80796   0.70891   1.000
    N3569   N    0.22203   0.55277   0.33655   1.000
    O3570   O    0.20340   0.56340   0.33368   1.000
    O3571   O    0.24096   0.54343   0.33862   1.000
    N3572   N    0.62494   0.96505   0.20501   1.000
    O3573   O    0.62496   0.96440   0.22275   1.000
    O3574   O    0.62496   0.96440   0.18789   1.000
    N3575   N    0.38782   0.71627   0.50809   1.000
    O3576   O    0.37638   0.73333   0.51391   1.000
    O3577   O    0.39946   0.69992   0.50116   1.000
    N3578   N    0.69723   0.36136   0.91345   1.000
    O3579   O    0.70657   0.37301   0.91138   1.000
    O3580   O    0.68660   0.35047   0.91632   1.000
    N3581   N    0.69723   0.91345   0.02797   1.000
    O3582   O    0.70657   0.91138   0.00904   1.000
    O3583   O    0.68660   0.91632   0.04661   1.000
    N3584   N    0.41892   0.82094   0.82094   1.000
    O3585   O    0.41904   0.83832   0.80383   1.000
    O3586   O    0.41904   0.80383   0.83832   1.000
    N3587   N    0.96505   0.62494   0.20501   1.000
    O3588   O    0.96440   0.62496   0.22275   1.000
    O3589   O    0.96440   0.62496   0.18789   1.000
    N3590   N    0.55277   0.88864   0.22204   1.000
    O3591   O    0.54343   0.87699   0.24096   1.000
    O3592   O    0.56340   0.89953   0.20340   1.000
    N3593   N    0.69723   0.02796   0.91345   1.000
    O3594   O    0.70657   0.00904   0.91138   1.000
    O3595   O    0.68660   0.04661   0.91632   1.000
    N3596   N    0.44174   0.44174   0.55826   1.000
    O3597   O    0.44204   0.44204   0.54109   1.000
    O3598   O    0.44204   0.44204   0.57483   1.000
    N3599   N    0.74191   0.86218   0.53373   1.000
    O3600   O    0.74884   0.85054   0.55008   1.000
    O3601   O    0.73609   0.87362   0.51667   1.000
    N3602   N    0.07730   0.96416   0.54870   1.000
    O3603   O    0.08796   0.95908   0.56095   1.000
    O3604   O    0.06619   0.96927   0.53688   1.000
    N3605   N    0.31080   0.83108   0.42906   1.000
    O3606   O    0.31119   0.83096   0.44617   1.000
    O3607   O    0.31119   0.83096   0.41168   1.000
    N3608   N    0.62494   0.20501   0.20501   1.000
    O3609   O    0.62496   0.22275   0.18789   1.000
    O3610   O    0.62496   0.18789   0.22275   1.000
    N3611   N    0.28584   0.84017   0.17270   1.000
    O3612   O    0.28073   0.82234   0.18381   1.000
    O3613   O    0.29092   0.85799   0.16204   1.000
    N3614   N    0.54870   0.40983   0.96416   1.000
    O3615   O    0.53688   0.42766   0.96927   1.000
    O3616   O    0.56095   0.39201   0.95908   1.000
    N3617   N    0.69174   0.80826   0.80826   1.000
    O3618   O    0.67517   0.80796   0.80796   1.000
    O3619   O    0.70891   0.80796   0.80796   1.000
    N3620   N    0.86218   0.53373   0.74191   1.000
    O3621   O    0.87362   0.51667   0.73609   1.000
    O3622   O    0.85054   0.55008   0.74884   1.000
    N3623   N    0.84017   0.17270   0.28584   1.000
    O3624   O    0.82234   0.18381   0.28073   1.000
    O3625   O    0.85799   0.16204   0.29092   1.000
    N3626   N    0.71628   0.50809   0.38782   1.000
    O3627   O    0.73333   0.51391   0.37638   1.000
    O3628   O    0.69992   0.50116   0.39946   1.000
    N3629   N    0.07730   0.40983   0.54870   1.000
    O3630   O    0.06619   0.42766   0.53688   1.000
    O3631   O    0.08796   0.39201   0.56095   1.000
    N3632   N    0.88865   0.55277   0.33655   1.000
    O3633   O    0.87700   0.54343   0.33862   1.000
    O3634   O    0.89953   0.56340   0.33368   1.000
    N3635   N    0.42906   0.83108   0.31080   1.000
    O3636   O    0.41168   0.83096   0.31119   1.000
    O3637   O    0.44617   0.83096   0.31119   1.000
    N3638   N    0.69174   0.69174   0.80826   1.000
    O3639   O    0.70891   0.67517   0.80796   1.000
    O3640   O    0.67517   0.70891   0.80796   1.000
    N3641   N    0.91345   0.02797   0.69723   1.000
    O3642   O    0.91632   0.04661   0.68660   1.000
    O3643   O    0.91138   0.00904   0.70657   1.000
    N3644   N    0.88865   0.22203   0.33655   1.000
    O3645   O    0.87700   0.24096   0.33862   1.000
    O3646   O    0.89953   0.20340   0.33368   1.000
    N3647   N    0.55277   0.88865   0.33655   1.000
    O3648   O    0.54343   0.87700   0.33862   1.000
    O3649   O    0.56340   0.89953   0.33368   1.000
    N3650   N    0.86218   0.53373   0.86218   1.000
    O3651   O    0.87362   0.51667   0.87362   1.000
    O3652   O    0.85054   0.55008   0.85054   1.000
    N3653   N    0.42906   0.42906   0.83108   1.000
    O3654   O    0.41168   0.44617   0.83096   1.000
    O3655   O    0.44617   0.41168   0.83096   1.000
    N3656   N    0.82094   0.41892   0.82094   1.000
    O3657   O    0.80383   0.41904   0.83832   1.000
    O3658   O    0.83832   0.41904   0.80383   1.000
    N3659   N    0.95109   0.95109   0.48250   1.000
    O3660   O    0.94412   0.94412   0.47517   1.000
    O3661   O    0.95813   0.95813   0.48938   1.000
    N3662   N    0.95109   0.61532   0.48250   1.000
    O3663   O    0.94412   0.63658   0.47517   1.000
    O3664   O    0.95813   0.59436   0.48938   1.000
    N3665   N    0.36135   0.91345   0.02797   1.000
    O3666   O    0.37300   0.91138   0.00904   1.000
    O3667   O    0.35047   0.91632   0.04661   1.000
    N3668   N    0.36135   0.02796   0.91345   1.000
    O3669   O    0.35047   0.04660   0.91632   1.000
    O3670   O    0.37300   0.00904   0.91138   1.000
    N3671   N    0.40983   0.96416   0.07730   1.000
    O3672   O    0.39201   0.95908   0.08796   1.000
    O3673   O    0.42766   0.96927   0.06619   1.000
    N3674   N    0.29891   0.29891   0.76750   1.000
    O3675   O    0.30588   0.30588   0.77483   1.000
    O3676   O    0.29187   0.29187   0.76062   1.000
    N3677   N    0.54870   0.96416   0.07730   1.000
    O3678   O    0.56095   0.95908   0.08796   1.000
    O3679   O    0.53688   0.96927   0.06619   1.000
    N3680   N    0.54870   0.40983   0.07730   1.000
    O3681   O    0.53688   0.42766   0.06619   1.000
    O3682   O    0.56095   0.39201   0.08796   1.000
    N3683   N    0.02797   0.69723   0.36136   1.000
    O3684   O    0.00904   0.70657   0.37301   1.000
    O3685   O    0.04661   0.68660   0.35047   1.000
    N3686   N    0.40983   0.54870   0.96416   1.000
    O3687   O    0.39201   0.56095   0.95908   1.000
    O3688   O    0.42766   0.53688   0.96927   1.000
    N3689   N    0.83108   0.42906   0.42906   1.000
    O3690   O    0.83096   0.44617   0.41168   1.000
    O3691   O    0.83096   0.41168   0.44617   1.000
    N3692   N    0.02797   0.91345   0.36136   1.000
    O3693   O    0.04660   0.91632   0.35047   1.000
    O3694   O    0.00904   0.91138   0.37301   1.000
    N3695   N    0.54870   0.07730   0.40983   1.000
    O3696   O    0.53688   0.06619   0.42766   1.000
    O3697   O    0.56095   0.08796   0.39201   1.000
    N3698   N    0.82094   0.93920   0.82094   1.000
    O3699   O    0.83832   0.93881   0.80383   1.000
    O3700   O    0.80383   0.93881   0.83832   1.000
    N3701   N    0.48250   0.61532   0.95109   1.000
    O3702   O    0.47517   0.63658   0.94412   1.000
    O3703   O    0.48938   0.59436   0.95813   1.000
    N3704   N    0.02796   0.36135   0.91345   1.000
    O3705   O    0.04660   0.35047   0.91632   1.000
    O3706   O    0.00904   0.37300   0.91138   1.000
    N3707   N    0.55277   0.33655   0.88865   1.000
    O3708   O    0.56340   0.33368   0.89953   1.000
    O3709   O    0.54343   0.33862   0.87700   1.000
    N3710   N    0.86218   0.86218   0.74191   1.000
    O3711   O    0.85054   0.85054   0.74884   1.000
    O3712   O    0.87362   0.87362   0.73609   1.000
    N3713   N    0.96416   0.40983   0.54870   1.000
    O3714   O    0.96927   0.42766   0.53688   1.000
    O3715   O    0.95908   0.39201   0.56095   1.000
    N3716   N    0.02797   0.69723   0.91345   1.000
    O3717   O    0.04661   0.68660   0.91632   1.000
    O3718   O    0.00904   0.70657   0.91138   1.000
    N3719   N    0.55277   0.33655   0.22204   1.000
    O3720   O    0.56340   0.33368   0.20340   1.000
    O3721   O    0.54343   0.33862   0.24096   1.000
    N3722   N    0.69174   0.80826   0.69174   1.000
    O3723   O    0.67517   0.80796   0.70891   1.000
    O3724   O    0.70891   0.80796   0.67517   1.000
    N3725   N    0.29891   0.76750   0.29891   1.000
    O3726   O    0.29187   0.76062   0.29187   1.000
    O3727   O    0.30588   0.77483   0.30588   1.000
    N3728   N    0.38782   0.50809   0.38782   1.000
    O3729   O    0.39946   0.50116   0.39946   1.000
    O3730   O    0.37638   0.51391   0.37638   1.000
    N3731   N    0.74191   0.86218   0.86218   1.000
    O3732   O    0.74884   0.85054   0.85054   1.000
    O3733   O    0.73609   0.87362   0.87362   1.000
    N3734   N    0.93920   0.82094   0.41892   1.000
    O3735   O    0.93881   0.80383   0.41904   1.000
    O3736   O    0.93881   0.83832   0.41904   1.000
    N3737   N    0.36135   0.02797   0.69723   1.000
    O3738   O    0.35047   0.04661   0.68660   1.000
    O3739   O    0.37300   0.00904   0.70657   1.000
    N3740   N    0.55277   0.22204   0.88865   1.000
    O3741   O    0.54343   0.24096   0.87700   1.000
    O3742   O    0.56340   0.20340   0.89953   1.000
    N3743   N    0.93920   0.82094   0.82094   1.000
    O3744   O    0.93881   0.80383   0.83832   1.000
    O3745   O    0.93881   0.83832   0.80383   1.000
    N3746   N    0.96416   0.40983   0.07730   1.000
    O3747   O    0.95908   0.39201   0.08796   1.000
    O3748   O    0.96927   0.42766   0.06619   1.000
    N3749   N    0.93920   0.41892   0.82094   1.000
    O3750   O    0.93881   0.41904   0.83832   1.000
    O3751   O    0.93881   0.41904   0.80383   1.000
    N3752   N    0.42906   0.42906   0.31080   1.000
    O3753   O    0.44617   0.41168   0.31119   1.000
    O3754   O    0.41168   0.44617   0.31119   1.000
    N3755   N    0.95109   0.95109   0.61532   1.000
    O3756   O    0.94412   0.94412   0.63658   1.000
    O3757   O    0.95813   0.95813   0.59436   1.000
    N3758   N    0.07730   0.96416   0.40983   1.000
    O3759   O    0.08796   0.95908   0.39201   1.000
    O3760   O    0.06619   0.96927   0.42766   1.000
    N3761   N    0.29891   0.63468   0.76750   1.000
    O3762   O    0.29187   0.65564   0.76062   1.000
    O3763   O    0.30588   0.61342   0.77483   1.000
    N3764   N    0.50809   0.71628   0.38782   1.000
    O3765   O    0.51391   0.73333   0.37638   1.000
    O3766   O    0.50116   0.69992   0.39946   1.000
    N3767   N    0.20501   0.62494   0.20501   1.000
    O3768   O    0.18789   0.62496   0.22275   1.000
    O3769   O    0.22275   0.62496   0.18789   1.000
    N3770   N    0.04499   0.28495   0.62506   1.000
    O3771   O    0.06211   0.28560   0.62504   1.000
    O3772   O    0.02725   0.28560   0.62504   1.000
    N3773   N    0.41892   0.93920   0.82094   1.000
    O3774   O    0.41904   0.93881   0.83832   1.000
    O3775   O    0.41904   0.93881   0.80383   1.000
    N3776   N    0.50809   0.38782   0.38782   1.000
    O3777   O    0.51391   0.37638   0.37638   1.000
    O3778   O    0.50116   0.39946   0.39946   1.000
    N3779   N    0.53372   0.86218   0.86218   1.000
    O3780   O    0.51667   0.87362   0.87362   1.000
    O3781   O    0.55008   0.85054   0.85054   1.000
    N3782   N    0.40983   0.96416   0.54870   1.000
    O3783   O    0.42766   0.96927   0.53688   1.000
    O3784   O    0.39201   0.95908   0.56095   1.000
    N3785   N    0.28584   0.70130   0.84017   1.000
    O3786   O    0.28073   0.71312   0.82234   1.000
    O3787   O    0.29092   0.68905   0.85799   1.000
    N3788   N    0.62506   0.04499   0.28495   1.000
    O3789   O    0.62504   0.02725   0.28560   1.000
    O3790   O    0.62504   0.06211   0.28560   1.000
    N3791   N    0.02797   0.91345   0.69723   1.000
    O3792   O    0.00904   0.91138   0.70657   1.000
    O3793   O    0.04661   0.91632   0.68660   1.000
    N3794   N    0.80826   0.69174   0.80826   1.000
    O3795   O    0.80796   0.67517   0.80796   1.000
    O3796   O    0.80796   0.70891   0.80796   1.000
    N3797   N    0.84017   0.28584   0.70130   1.000
    O3798   O    0.82234   0.28073   0.71312   1.000
    O3799   O    0.85799   0.29092   0.68905   1.000
    N3800   N    0.91345   0.02796   0.36136   1.000
    O3801   O    0.91138   0.00904   0.37301   1.000
    O3802   O    0.91632   0.04660   0.35047   1.000
    N3803   N    0.04499   0.62506   0.28495   1.000
    O3804   O    0.06211   0.62504   0.28560   1.000
    O3805   O    0.02725   0.62504   0.28560   1.000
    N3806   N    0.44174   0.55826   0.44174   1.000
    O3807   O    0.44204   0.57483   0.44204   1.000
    O3808   O    0.44204   0.54109   0.44204   1.000
    N3809   N    0.88865   0.55277   0.22204   1.000
    O3810   O    0.89953   0.56340   0.20340   1.000
    O3811   O    0.87700   0.54343   0.24096   1.000
    N3812   N    0.61532   0.95109   0.95109   1.000
    O3813   O    0.63658   0.94412   0.94412   1.000
    O3814   O    0.59436   0.95813   0.95813   1.000
    N3815   N    0.61532   0.95109   0.48250   1.000
    O3816   O    0.59436   0.95813   0.48938   1.000
    O3817   O    0.63658   0.94412   0.47517   1.000
    N3818   N    0.48250   0.95109   0.95109   1.000
    O3819   O    0.48938   0.95813   0.95813   1.000
    O3820   O    0.47517   0.94412   0.94412   1.000
    N3821   N    0.55826   0.44174   0.44174   1.000
    O3822   O    0.54109   0.44204   0.44204   1.000
    O3823   O    0.57483   0.44204   0.44204   1.000
    N3824   N    0.95109   0.61532   0.95109   1.000
    O3825   O    0.95813   0.59436   0.95813   1.000
    O3826   O    0.94412   0.63658   0.94412   1.000
    N3827   N    0.07730   0.40983   0.96416   1.000
    O3828   O    0.08796   0.39201   0.95908   1.000
    O3829   O    0.06619   0.42766   0.96927   1.000
    N3830   N    0.42906   0.83108   0.42906   1.000
    O3831   O    0.44617   0.83096   0.41168   1.000
    O3832   O    0.41168   0.83096   0.44617   1.000
    N3833   N    0.28584   0.17270   0.70130   1.000
    O3834   O    0.29092   0.16204   0.68905   1.000
    O3835   O    0.28073   0.18381   0.71312   1.000
    N3836   N    0.20501   0.96505   0.20501   1.000
    O3837   O    0.22275   0.96440   0.18789   1.000
    O3838   O    0.18789   0.96440   0.22275   1.000
    N3839   N    0.20501   0.20501   0.62494   1.000
    O3840   O    0.22275   0.18789   0.62496   1.000
    O3841   O    0.18789   0.22275   0.62496   1.000
    N3842   N    0.88865   0.33655   0.22204   1.000
    O3843   O    0.89953   0.33368   0.20340   1.000
    O3844   O    0.87700   0.33862   0.24096   1.000
    N3845   N    0.04499   0.04499   0.62506   1.000
    O3846   O    0.06211   0.02725   0.62504   1.000
    O3847   O    0.02725   0.06211   0.62504   1.000
    N3848   N    0.74191   0.53373   0.86218   1.000
    O3849   O    0.74884   0.55008   0.85054   1.000
    O3850   O    0.73609   0.51667   0.87362   1.000
    N3851   N    0.07730   0.54870   0.96416   1.000
    O3852   O    0.08796   0.56095   0.95908   1.000
    O3853   O    0.06619   0.53688   0.96927   1.000
    N3854   N    0.71627   0.38782   0.38782   1.000
    O3855   O    0.73333   0.37638   0.37638   1.000
    O3856   O    0.69992   0.39946   0.39946   1.000
    N3857   N    0.76750   0.63468   0.29891   1.000
    O3858   O    0.77483   0.61342   0.30588   1.000
    O3859   O    0.76062   0.65564   0.29187   1.000
    N3860   N    0.88865   0.33655   0.55277   1.000
    O3861   O    0.89953   0.33368   0.56340   1.000
    O3862   O    0.87700   0.33862   0.54343   1.000
    N3863   N    0.17270   0.70130   0.28584   1.000
    O3864   O    0.18381   0.71312   0.28073   1.000
    O3865   O    0.16204   0.68905   0.29092   1.000
    N3866   N    0.28495   0.04499   0.04499   1.000
    O3867   O    0.28560   0.02725   0.06211   1.000
    O3868   O    0.28560   0.06211   0.02725   1.000
    N3869   N    0.42906   0.31080   0.42906   1.000
    O3870   O    0.44617   0.31119   0.41168   1.000
    O3871   O    0.41168   0.31119   0.44617   1.000
    N3872   N    0.33655   0.22204   0.88865   1.000
    O3873   O    0.33862   0.24096   0.87700   1.000
    O3874   O    0.33368   0.20340   0.89953   1.000
    N3875   N    0.95109   0.48250   0.61532   1.000
    O3876   O    0.95813   0.48938   0.59436   1.000
    O3877   O    0.94412   0.47517   0.63658   1.000
    N3878   N    0.20501   0.96505   0.62494   1.000
    O3879   O    0.18789   0.96440   0.62496   1.000
    O3880   O    0.22275   0.96440   0.62496   1.000
    N3881   N    0.17270   0.70130   0.84017   1.000
    O3882   O    0.16204   0.68905   0.85799   1.000
    O3883   O    0.18381   0.71312   0.82234   1.000
    N3884   N    0.91345   0.69723   0.02797   1.000
    O3885   O    0.91138   0.70657   0.00904   1.000
    O3886   O    0.91632   0.68660   0.04661   1.000
    N3887   N    0.88864   0.22204   0.55277   1.000
    O3888   O    0.89953   0.20340   0.56340   1.000
    O3889   O    0.87699   0.24096   0.54343   1.000
    N3890   N    0.33655   0.88864   0.55277   1.000
    O3891   O    0.33862   0.87699   0.54343   1.000
    O3892   O    0.33368   0.89953   0.56340   1.000
    N3893   N    0.33655   0.55277   0.22204   1.000
    O3894   O    0.33862   0.54343   0.24096   1.000
    O3895   O    0.33368   0.56340   0.20340   1.000
    N3896   N    0.96505   0.20501   0.20501   1.000
    O3897   O    0.96440   0.18789   0.22275   1.000
    O3898   O    0.96440   0.22275   0.18789   1.000
    N3899   N    0.71627   0.38782   0.50809   1.000
    O3900   O    0.69992   0.39946   0.50116   1.000
    O3901   O    0.73333   0.37638   0.51391   1.000
    N3902   N    0.95109   0.48250   0.95109   1.000
    O3903   O    0.94412   0.47517   0.94412   1.000
    O3904   O    0.95813   0.48938   0.95813   1.000
    N3905   N    0.40983   0.07730   0.54870   1.000
    O3906   O    0.42766   0.06619   0.53688   1.000
    O3907   O    0.39201   0.08796   0.56095   1.000
    N3908   N    0.86218   0.74191   0.86218   1.000
    O3909   O    0.87362   0.73609   0.87362   1.000
    O3910   O    0.85054   0.74884   0.85054   1.000
    N3911   N    0.22203   0.88865   0.33655   1.000
    O3912   O    0.20339   0.89953   0.33368   1.000
    O3913   O    0.24096   0.87700   0.33862   1.000
    N3914   N    0.17270   0.84017   0.28584   1.000
    O3915   O    0.18381   0.82234   0.28073   1.000
    O3916   O    0.16204   0.85799   0.29092   1.000
    N3917   N    0.82094   0.82094   0.93920   1.000
    O3918   O    0.80383   0.83832   0.93881   1.000
    O3919   O    0.83832   0.80383   0.93881   1.000
    N3920   N    0.42906   0.31080   0.83108   1.000
    O3921   O    0.41168   0.31119   0.83096   1.000
    O3922   O    0.44617   0.31119   0.83096   1.000
    N3923   N    0.44174   0.55826   0.55826   1.000
    O3924   O    0.44204   0.54109   0.57483   1.000
    O3925   O    0.44204   0.57483   0.54109   1.000
    N3926   N    0.55826   0.44174   0.55826   1.000
    O3927   O    0.54109   0.44204   0.57483   1.000
    O3928   O    0.57483   0.44204   0.54109   1.000
    N3929   N    0.29891   0.76750   0.63468   1.000
    O3930   O    0.30588   0.77483   0.61342   1.000
    O3931   O    0.29187   0.76062   0.65564   1.000
    N3932   N    0.63468   0.29891   0.76750   1.000
    O3933   O    0.61342   0.30588   0.77483   1.000
    O3934   O    0.65564   0.29187   0.76062   1.000
    N3935   N    0.28584   0.84017   0.70130   1.000
    O3936   O    0.29092   0.85799   0.68905   1.000
    O3937   O    0.28073   0.82234   0.71312   1.000
    N3938   N    0.17270   0.84017   0.70130   1.000
    O3939   O    0.18381   0.82234   0.71312   1.000
    O3940   O    0.16204   0.85799   0.68905   1.000
    N3941   N    0.70130   0.17270   0.84017   1.000
    O3942   O    0.68905   0.16204   0.85799   1.000
    O3943   O    0.71312   0.18381   0.82234   1.000
loop_
    _geom_bond_atom_site_label_1
    _geom_bond_atom_site_label_2
    _geom_bond_distance
    _geom_bond_site_symmetry_2
    _ccdc_geom_bond_type
    Zr692  O1496     0.94911      .   S
    Zr1286 O1496     0.94911      .   S
    Zr692  O1497     0.63735  1_554   S
    Zr680  O1497     0.63735      .   S
    Zr842  O1498     0.94911      .   S
    Zr1290 O1498     0.94911      .   S
    Zr842  O1499     0.63735  1_554   S
    Zr830  O1499     0.63735      .   S
    Zr567  O1500     0.94911      .   S
    Zr1294 O1500     0.94911      .   S
    Zr567  O1501     0.63735  1_554   S
    Zr555  O1501     0.63735      .   S
    Zr717  O1502     0.94911      .   S
    Zr1294 O1502     0.94911      .   S
    Zr717  O1503     0.63735  1_554   S
    Zr705  O1503     0.63735      .   S
    Zr367  O1504     0.94911      .   S
    Zr1286 O1504     0.94911      .   S
    Zr367  O1505     0.63735  1_554   S
    Zr355  O1505     0.63735      .   S
    Zr467  O1506     0.94911      .   S
    Zr1290 O1506     0.94911      .   S
    Zr467  O1507     0.63735  1_554   S
    Zr455  O1507     0.63735      .   S
    Zr1319 O1508     0.94461      .   S
    Zr743  O1508     0.94461      .   S
    Zr1319 O1509     0.94483      .   S
    Zr593  O1509     0.94483      .   S
    Zr1319 O1510     0.94522      .   S
    Zr745  O1510     0.94522  1_556   S
    Zr1319 O1511     0.94522      .   S
    Zr595  O1511     0.94522  1_556   S
    Zr1319 O1512     0.96312      .   S
    Zr1295 O1512     0.96312  1_556   S
    Zr1315 O1513     0.94483      .   S
    Zr818  O1513     0.94483      .   S
    Zr1315 O1514     0.94461      .   S
    Zr493  O1514     0.94461      .   S
    Zr1315 O1515     0.94522      .   S
    Zr495  O1515     0.94522  1_556   S
    Zr1315 O1516     0.94522      .   S
    Zr820  O1516     0.94522  1_556   S
    Zr1315 O1517     0.96312      .   S
    Zr1291 O1517     0.96312  1_556   S
    Zr1311 O1518     0.94466      .   S
    Zr393  O1518     0.94466      .   S
    Zr1311 O1519     0.94466      .   S
    Zr668  O1519     0.94466      .   S
    Zr1311 O1520     0.94522      .   S
    Zr670  O1520     0.94522  1_556   S
    Zr1311 O1521     0.94522      .   S
    Zr395  O1521     0.94522  1_556   S
    Zr1311 O1522     0.96312      .   S
    Zr1287 O1522     0.96312  1_556   S
    Zr1286 O1523     0.94911      .   S
    Zr667  O1523     0.94911      .   S
    Zr1286 O1524     0.94911      .   S
    Zr392  O1524     0.94911      .   S
    Zr1290 O1525     0.94911      .   S
    Zr492  O1525     0.94911      .   S
    Zr1290 O1526     0.94911      .   S
    Zr817  O1526     0.94911      .   S
    Zr1294 O1527     0.94911      .   S
    Zr592  O1527     0.94911      .   S
    Zr1294 O1528     0.94911      .   S
    Zr742  O1528     0.94911      .   S
    Zr393  O1529     0.63643      .   S
    Zr380  O1529     0.63643      .   S
    Zr818  O1530     0.63614      .   S
    Zr805  O1530     0.63614      .   S
    Zr668  O1531     0.63643      .   S
    Zr655  O1531     0.63643      .   S
    Zr743  O1532     0.63626      .   S
    Zr730  O1532     0.63626      .   S
    Zr593  O1533     0.63614      .   S
    Zr580  O1533     0.63614      .   S
    Zr493  O1534     0.63626      .   S
    Zr480  O1534     0.63626      .   S
    Zr667  O1535     0.63735      .   S
    Zr655  O1535     0.63735      .   S
    Zr592  O1536     0.63735  1_545   S
    Zr580  O1536     0.63735      .   S
    Zr492  O1537     0.63735  1_455   S
    Zr480  O1537     0.63735      .   S
    Zr392  O1538     0.63735      .   S
    Zr380  O1538     0.63735      .   S
    Zr817  O1539     0.63735  1_455   S
    Zr805  O1539     0.63735      .   S
    Zr742  O1540     0.63735  1_545   S
    Zr730  O1540     0.63735      .   S
    Zr57   O1541     0.63636      .   S
    Zr73   O1541     0.63636      .   S
    Zr57   O1542     0.63139      .   S
    Zr599  O1542     0.63139      .   S
    Zr1182 O1543     0.63606      .   S
    Zr1198 O1543     0.63606      .   S
    Zr1182 O1544     0.63139      .   S
    Zr674  O1544     0.63139      .   S
    Zr982  O1545     0.63636      .   S
    Zr998  O1545     0.63636      .   S
    Zr982  O1546     0.63139      .   S
    Zr824  O1546     0.63139      .   S
    Zr132  O1547     0.63614      .   S
    Zr148  O1547     0.63614      .   S
    Zr132  O1548     0.63139      .   S
    Zr499  O1548     0.63139      .   S
    Zr207  O1549     0.63606      .   S
    Zr223  O1549     0.63606      .   S
    Zr207  O1550     0.63139      .   S
    Zr399  O1550     0.63139      .   S
    Zr1082 O1551     0.63614      .   S
    Zr1098 O1551     0.63614      .   S
    Zr1082 O1552     0.63139      .   S
    Zr749  O1552     0.63139      .   S
    Zr1098 O1553     0.94636      .   S
    Zr1075 O1553     0.94636      .   S
    Zr1198 O1554     0.94636      .   S
    Zr1175 O1554     0.94636      .   S
    Zr998  O1555     0.94636      .   S
    Zr975  O1555     0.94636      .   S
    Zr223  O1556     0.94636      .   S
    Zr200  O1556     0.94636      .   S
    Zr148  O1557     0.94636      .   S
    Zr125  O1557     0.94636      .   S
    Zr73   O1558     0.94636      .   S
    Zr50   O1558     0.94636      .   S
    Zr728  O1559     0.63776      .   S
    Zr1089 O1559     0.63776      .   S
    Zr728  O1560     0.63699      .   S
    Zr738  O1560     0.63699      .   S
    Zr378  O1561     0.63746      .   S
    Zr214  O1561     0.63746      .   S
    Zr378  O1562     0.63699      .   S
    Zr388  O1562     0.63699      .   S
    Zr578  O1563     0.63754      .   S
    Zr64   O1563     0.63754      .   S
    Zr578  O1564     0.63699      .   S
    Zr588  O1564     0.63699      .   S
    Zr478  O1565     0.63776      .   S
    Zr139  O1565     0.63776      .   S
    Zr478  O1566     0.63699      .   S
    Zr488  O1566     0.63699      .   S
    Zr653  O1567     0.63746      .   S
    Zr1189 O1567     0.63746      .   S
    Zr653  O1568     0.63699      .   S
    Zr663  O1568     0.63699      .   S
    Zr803  O1569     0.63754      .   S
    Zr989  O1569     0.63754      .   S
    Zr803  O1570     0.63699      .   S
    Zr813  O1570     0.63699      .   S
    Zr399  O1571     0.92444      .   S
    Zr1240 O1571     0.92444      .   S
    Zr674  O1572     0.92444      .   S
    Zr1252 O1572     0.92444      .   S
    Zr749  O1573     0.92457      .   S
    Zr1258 O1573     0.92457      .   S
    Zr824  O1574     0.92446      .   S
    Zr1264 O1574     0.92446      .   S
    Zr599  O1575     0.92446      .   S
    Zr1228 O1575     0.92446      .   S
    Zr499  O1576     0.92457      .   S
    Zr1234 O1576     0.92457      .   S
    Zr989  O1577     0.94974      .   S
    Zr975  O1577     0.94974      .   S
    Zr214  O1578     0.94994      .   S
    Zr200  O1578     0.94994      .   S
    Zr64   O1579     0.94974      .   S
    Zr50   O1579     0.94974      .   S
    Zr1189 O1580     0.94994      .   S
    Zr1175 O1580     0.94994      .   S
    Zr1089 O1581     0.94970      .   S
    Zr1075 O1581     0.94970      .   S
    Zr139  O1582     0.94970      .   S
    Zr125  O1582     0.94970      .   S
    Zr729  O1583     0.63651      .   S
    Zr741  O1583     0.63651      .   S
    Zr729  O1584     0.63747      .   S
    Zr740  O1584     0.63747      .   S
    Zr579  O1585     0.63638      .   S
    Zr591  O1585     0.63638      .   S
    Zr579  O1586     0.63747      .   S
    Zr590  O1586     0.63747      .   S
    Zr654  O1587     0.63620      .   S
    Zr666  O1587     0.63620      .   S
    Zr654  O1588     0.63747      .   S
    Zr665  O1588     0.63747      .   S
    Zr479  O1589     0.63651      .   S
    Zr491  O1589     0.63651      .   S
    Zr479  O1590     0.63747      .   S
    Zr490  O1590     0.63747      .   S
    Zr379  O1591     0.63620      .   S
    Zr391  O1591     0.63620      .   S
    Zr379  O1592     0.63747      .   S
    Zr390  O1592     0.63747      .   S
    Zr804  O1593     0.63638      .   S
    Zr816  O1593     0.63638      .   S
    Zr804  O1594     0.63747      .   S
    Zr815  O1594     0.63747      .   S
    Zr738  O1595     0.94705      .   S
    Zr725  O1595     0.94705      .   S
    Zr488  O1596     0.94705      .   S
    Zr475  O1596     0.94705      .   S
    Zr388  O1597     0.94705      .   S
    Zr375  O1597     0.94705      .   S
    Zr663  O1598     0.94705      .   S
    Zr650  O1598     0.94705      .   S
    Zr813  O1599     0.94705      .   S
    Zr800  O1599     0.94705      .   S
    Zr588  O1600     0.94705      .   S
    Zr575  O1600     0.94705      .   S
    Zr741  O1601     0.94412      .   S
    Zr1258 O1601     0.94412      .   S
    Zr666  O1602     0.94435      .   S
    Zr1252 O1602     0.94435      .   S
    Zr491  O1603     0.94412      .   S
    Zr1234 O1603     0.94412      .   S
    Zr591  O1604     0.94437      .   S
    Zr1228 O1604     0.94437      .   S
    Zr816  O1605     0.94437      .   S
    Zr1264 O1605     0.94437      .   S
    Zr391  O1606     0.94435      .   S
    Zr1240 O1606     0.94435      .   S
    Zr125  O1607     0.95084      .   S
    Zr140  O1607     0.95084      .   S
    Zr125  O1608     0.94705      .   S
    Zr138  O1608     0.94705      .   S
    Zr1075 O1609     0.95084      .   S
    Zr1090 O1609     0.95084      .   S
    Zr1075 O1610     0.94705      .   S
    Zr1088 O1610     0.94705      .   S
    Zr200  O1611     0.95084      .   S
    Zr215  O1611     0.95084      .   S
    Zr200  O1612     0.94705      .   S
    Zr213  O1612     0.94705      .   S
    Zr50   O1613     0.95084      .   S
    Zr65   O1613     0.95084      .   S
    Zr50   O1614     0.94705      .   S
    Zr63   O1614     0.94705      .   S
    Zr975  O1615     0.95084      .   S
    Zr990  O1615     0.95084      .   S
    Zr975  O1616     0.94705      .   S
    Zr988  O1616     0.94705      .   S
    Zr1175 O1617     0.96649      .   S
    Zr1253 O1617     0.96649      .   S
    Zr1175 O1618     0.95084      .   S
    Zr1190 O1618     0.95084      .   S
    Zr1175 O1619     0.94705      .   S
    Zr1188 O1619     0.94705      .   S
    Zr390  O1620     0.95084      .   S
    Zr375  O1620     0.95084      .   S
    Zr815  O1621     0.95084      .   S
    Zr800  O1621     0.95084      .   S
    Zr590  O1622     0.95084      .   S
    Zr575  O1622     0.95084      .   S
    Zr740  O1623     0.95084      .   S
    Zr725  O1623     0.95084      .   S
    Zr490  O1624     0.95084      .   S
    Zr475  O1624     0.95084      .   S
    Zr665  O1625     0.95084      .   S
    Zr650  O1625     0.95084      .   S
    Zr1258 O1626     0.96051      .   S
    Zr1259 O1626     0.96051      .   S
    Zr1258 O1627     0.94412      .   S
    Zr1091 O1627     0.94412      .   S
    Zr1258 O1628     0.92457      .   S
    Zr1099 O1628     0.92457      .   S
    Zr1228 O1629     0.96051      .   S
    Zr1229 O1629     0.96051      .   S
    Zr1228 O1630     0.94435      .   S
    Zr66   O1630     0.94435      .   S
    Zr1228 O1631     0.92444      .   S
    Zr74   O1631     0.92444      .   S
    Zr1229 O1632     0.96649      .   S
    Zr575  O1632     0.96649      .   S
    Zr1234 O1633     0.96051      .   S
    Zr1235 O1633     0.96051      .   S
    Zr1234 O1634     0.94412      .   S
    Zr141  O1634     0.94412      .   S
    Zr1234 O1635     0.92457      .   S
    Zr149  O1635     0.92457      .   S
    Zr1259 O1636     0.96649      .   S
    Zr725  O1636     0.96649      .   S
    Zr1253 O1637     0.96051      .   S
    Zr1252 O1637     0.96051      .   S
    Zr1252 O1638     0.94437      .   S
    Zr1191 O1638     0.94437      .   S
    Zr1252 O1639     0.92446      .   S
    Zr1199 O1639     0.92446      .   S
    Zr1264 O1640     0.96051      .   S
    Zr1265 O1640     0.96051      .   S
    Zr1264 O1641     0.94435      .   S
    Zr991  O1641     0.94435      .   S
    Zr1264 O1642     0.92444      .   S
    Zr999  O1642     0.92444      .   S
    Zr1265 O1643     0.96649      .   S
    Zr800  O1643     0.96649      .   S
    Zr1241 O1644     0.96051      .   S
    Zr1240 O1644     0.96051      .   S
    Zr1241 O1645     0.96649      .   S
    Zr375  O1645     0.96649      .   S
    Zr1240 O1646     0.94437      .   S
    Zr216  O1646     0.94437      .   S
    Zr1240 O1647     0.92446      .   S
    Zr224  O1647     0.92446      .   S
    Zr1235 O1648     0.96649      .   S
    Zr475  O1648     0.96649      .   S
    Zr65   O1649     0.63747      .   S
    Zr54   O1649     0.63747      .   S
    Zr1190 O1650     0.63747      .   S
    Zr1179 O1650     0.63747      .   S
    Zr1090 O1651     0.63747      .   S
    Zr1079 O1651     0.63747      .   S
    Zr140  O1652     0.63747      .   S
    Zr129  O1652     0.63747      .   S
    Zr215  O1653     0.63747      .   S
    Zr204  O1653     0.63747      .   S
    Zr990  O1654     0.63747      .   S
    Zr979  O1654     0.63747      .   S
    Zr800  O1655     0.94994      .   S
    Zr814  O1655     0.94994      .   S
    Zr800  O1656     0.94636      .   S
    Zr823  O1656     0.94636      .   S
    Zr475  O1657     0.94970      .   S
    Zr489  O1657     0.94970      .   S
    Zr475  O1658     0.94636      .   S
    Zr498  O1658     0.94636      .   S
    Zr725  O1659     0.94970      .   S
    Zr739  O1659     0.94970      .   S
    Zr725  O1660     0.94636      .   S
    Zr748  O1660     0.94636      .   S
    Zr575  O1661     0.94994      .   S
    Zr589  O1661     0.94994      .   S
    Zr575  O1662     0.94636      .   S
    Zr598  O1662     0.94636      .   S
    Zr650  O1663     0.94974      .   S
    Zr664  O1663     0.94974      .   S
    Zr650  O1664     0.94636      .   S
    Zr673  O1664     0.94636      .   S
    Zr375  O1665     0.94974      .   S
    Zr389  O1665     0.94974      .   S
    Zr375  O1666     0.94636      .   S
    Zr398  O1666     0.94636      .   S
    Zr66   O1667     0.63620      .   S
    Zr54   O1667     0.63620      .   S
    Zr1191 O1668     0.63638      .   S
    Zr1179 O1668     0.63638      .   S
    Zr141  O1669     0.63651      .   S
    Zr129  O1669     0.63651      .   S
    Zr216  O1670     0.63638      .   S
    Zr204  O1670     0.63638      .   S
    Zr991  O1671     0.63620      .   S
    Zr979  O1671     0.63620      .   S
    Zr1091 O1672     0.63651      .   S
    Zr1079 O1672     0.63651      .   S
    Zr1088 O1673     0.63699      .   S
    Zr1078 O1673     0.63699      .   S
    Zr63   O1674     0.63699      .   S
    Zr53   O1674     0.63699      .   S
    Zr213  O1675     0.63699      .   S
    Zr203  O1675     0.63699      .   S
    Zr988  O1676     0.63699      .   S
    Zr978  O1676     0.63699      .   S
    Zr138  O1677     0.63699      .   S
    Zr128  O1677     0.63699      .   S
    Zr1188 O1678     0.63699      .   S
    Zr1178 O1678     0.63699      .   S
    Zr739  O1679     0.63776      .   S
    Zr1078 O1679     0.63776      .   S
    Zr664  O1680     0.63754      .   S
    Zr1178 O1680     0.63754      .   S
    Zr814  O1681     0.63746      .   S
    Zr978  O1681     0.63746      .   S
    Zr489  O1682     0.63776      .   S
    Zr128  O1682     0.63776      .   S
    Zr589  O1683     0.63746      .   S
    Zr53   O1683     0.63746      .   S
    Zr389  O1684     0.63754      .   S
    Zr203  O1684     0.63754      .   S
    Zr999  O1685     0.63139      .   S
    Zr807  O1685     0.63139      .   S
    Zr224  O1686     0.63139      .   S
    Zr382  O1686     0.63139      .   S
    Zr1099 O1687     0.63139      .   S
    Zr732  O1687     0.63139      .   S
    Zr149  O1688     0.63139      .   S
    Zr482  O1688     0.63139      .   S
    Zr74   O1689     0.63139      .   S
    Zr582  O1689     0.63139      .   S
    Zr1199 O1690     0.63139      .   S
    Zr657  O1690     0.63139      .   S
    Zr823  O1691     0.63606      .   S
    Zr807  O1691     0.63606      .   S
    Zr498  O1692     0.63614      .   S
    Zr482  O1692     0.63614      .   S
    Zr598  O1693     0.63606      .   S
    Zr582  O1693     0.63606      .   S
    Zr673  O1694     0.63636      .   S
    Zr657  O1694     0.63636      .   S
    Zr398  O1695     0.63636      .   S
    Zr382  O1695     0.63636      .   S
    Zr748  O1696     0.63614      .   S
    Zr732  O1696     0.63614      .   S
    Zr130  O1697     0.63735      .   S
    Zr142  O1697     0.63735      .   S
    Zr130  O1698     0.63626      .   S
    Zr143  O1698     0.63626      .   S
    Zr55   O1699     0.63735      .   S
    Zr67   O1699     0.63735      .   S
    Zr55   O1700     0.63643      .   S
    Zr68   O1700     0.63643      .   S
    Zr1180 O1701     0.63735      .   S
    Zr1192 O1701     0.63735      .   S
    Zr1180 O1702     0.63614      .   S
    Zr1193 O1702     0.63614      .   S
    Zr205  O1703     0.63735      .   S
    Zr217  O1703     0.63735      .   S
    Zr205  O1704     0.63614      .   S
    Zr218  O1704     0.63614      .   S
    Zr1080 O1705     0.63735      .   S
    Zr1092 O1705     0.63735      .   S
    Zr1080 O1706     0.63626      .   S
    Zr1093 O1706     0.63626      .   S
    Zr980  O1707     0.63735      .   S
    Zr992  O1707     0.63735      .   S
    Zr980  O1708     0.63643      .   S
    Zr993  O1708     0.63643      .   S
    Zr1092 O1709     0.94911      .   S
    Zr1280 O1709     0.94911      .   S
    Zr217  O1710     0.94911      .   S
    Zr1280 O1710     0.94911      .   S
    Zr1192 O1711     0.94911      .   S
    Zr1276 O1711     0.94911      .   S
    Zr992  O1712     0.94911      .   S
    Zr1274 O1712     0.94911      .   S
    Zr142  O1713     0.94911      .   S
    Zr1276 O1713     0.94911      .   S
    Zr67   O1714     0.94911      .   S
    Zr1274 O1714     0.94911      .   S
    Zr1093 O1715     0.94461      .   S
    Zr1304 O1715     0.94461      .   S
    Zr218  O1716     0.94483      .   S
    Zr1304 O1716     0.94483      .   S
    Zr68   O1717     0.94466      .   S
    Zr1298 O1717     0.94466      .   S
    Zr993  O1718     0.94466      .   S
    Zr1298 O1718     0.94466      .   S
    Zr1193 O1719     0.94483      .   S
    Zr1301 O1719     0.94483      .   S
    Zr143  O1720     0.94461      .   S
    Zr1301 O1720     0.94461      .   S
    Zr1280 O1721     0.94911      .   S
    Zr242  O1721     0.94911      .   S
    Zr1280 O1722     0.94911      .   S
    Zr1067 O1722     0.94911      .   S
    Zr1274 O1723     0.94911      .   S
    Zr92   O1723     0.94911      .   S
    Zr1274 O1724     0.94911      .   S
    Zr967  O1724     0.94911      .   S
    Zr1276 O1725     0.94911      .   S
    Zr1167 O1725     0.94911      .   S
    Zr1276 O1726     0.94911      .   S
    Zr117  O1726     0.94911      .   S
    Zr1304 O1727     0.96312      .   S
    Zr1281 O1727     0.96312      .   S
    Zr1304 O1728     0.94522      .   S
    Zr1095 O1728     0.94522      .   S
    Zr1304 O1729     0.94522      .   S
    Zr220  O1729     0.94522      .   S
    Zr1298 O1730     0.96312      .   S
    Zr1275 O1730     0.96312      .   S
    Zr1298 O1731     0.94522      .   S
    Zr70   O1731     0.94522      .   S
    Zr1298 O1732     0.94522      .   S
    Zr995  O1732     0.94522      .   S
    Zr1301 O1733     0.96312      .   S
    Zr1277 O1733     0.96312      .   S
    Zr1301 O1734     0.94522      .   S
    Zr1195 O1734     0.94522      .   S
    Zr1301 O1735     0.94522      .   S
    Zr145  O1735     0.94522      .   S
    Zr92   O1736     0.63735      .   S
    Zr80   O1736     0.63735      .   S
    Zr967  O1737     0.63735      .   S
    Zr955  O1737     0.63735      .   S
    Zr1167 O1738     0.63735      .   S
    Zr1155 O1738     0.63735      .   S
    Zr117  O1739     0.63735      .   S
    Zr105  O1739     0.63735      .   S
    Zr242  O1740     0.63735      .   S
    Zr230  O1740     0.63735      .   S
    Zr1067 O1741     0.63735      .   S
    Zr1055 O1741     0.63735      .   S
    Zr1277 O1742     0.96312      .   S
    Zr1300 O1742     0.96312      .   S
    Zr1275 O1743     0.96312      .   S
    Zr1299 O1743     0.96312      .   S
    Zr1281 O1744     0.96312      .   S
    Zr1305 O1744     0.96312      .   S
    Zr1053 O1745     0.63699      .   S
    Zr1063 O1745     0.63699      .   S
    Zr1053 O1746     0.63754      .   S
    Zr764  O1746     0.63754      .   S
    Zr103  O1747     0.63699      .   S
    Zr113  O1747     0.63699      .   S
    Zr103  O1748     0.63754      .   S
    Zr414  O1748     0.63754      .   S
    Zr1153 O1749     0.63699      .   S
    Zr1163 O1749     0.63699      .   S
    Zr1153 O1750     0.63776      .   S
    Zr639  O1750     0.63776      .   S
    Zr78   O1751     0.63699      .   S
    Zr88   O1751     0.63699      .   S
    Zr78   O1752     0.63761      .   S
    Zr514  O1752     0.63761      .   S
    Zr953  O1753     0.63699      .   S
    Zr963  O1753     0.63699      .   S
    Zr953  O1754     0.63761      .   S
    Zr889  O1754     0.63761      .   S
    Zr228  O1755     0.63699      .   S
    Zr238  O1755     0.63699      .   S
    Zr228  O1756     0.63776      .   S
    Zr314  O1756     0.63776      .   S
    Zr113  O1757     0.94705      .   S
    Zr100  O1757     0.94705      .   S
    Zr238  O1758     0.94705      .   S
    Zr225  O1758     0.94705      .   S
    Zr1063 O1759     0.94705      .   S
    Zr1050 O1759     0.94705      .   S
    Zr963  O1760     0.94705      .   S
    Zr950  O1760     0.94705      .   S
    Zr88   O1761     0.94705      .   S
    Zr75   O1761     0.94705      .   S
    Zr1163 O1762     0.94705      .   S
    Zr1150 O1762     0.94705      .   S
    Zr1095 O1763     0.63651      .   S
    Zr1378 O1763     0.63651      .   S
    Zr70   O1764     0.63651      .   S
    Zr1336 O1764     0.63651      .   S
    Zr995  O1765     0.63651      .   S
    Zr1342 O1765     0.63651      .   S
    Zr1195 O1766     0.63651      .   S
    Zr1348 O1766     0.63651      .   S
    Zr145  O1767     0.63651      .   S
    Zr1354 O1767     0.63651      .   S
    Zr220  O1768     0.63651      .   S
    Zr1372 O1768     0.63651      .   S
    Zr514  O1769     0.94964      .   S
    Zr500  O1769     0.94964      .   S
    Zr414  O1770     0.94974      .   S
    Zr400  O1770     0.94974      .   S
    Zr764  O1771     0.94974      .   S
    Zr750  O1771     0.94974      .   S
    Zr314  O1772     0.94970      .   S
    Zr300  O1772     0.94970      .   S
    Zr639  O1773     0.94970      .   S
    Zr625  O1773     0.94970      .   S
    Zr889  O1774     0.94964      .   S
    Zr875  O1774     0.94964      .   S
    Zr955  O1775     0.63637      .   S
    Zr968  O1775     0.63637      .   S
    Zr1155 O1776     0.63626      .   S
    Zr1168 O1776     0.63626      .   S
    Zr1055 O1777     0.63614      .   S
    Zr1068 O1777     0.63614      .   S
    Zr105  O1778     0.63614      .   S
    Zr118  O1778     0.63614      .   S
    Zr230  O1779     0.63626      .   S
    Zr243  O1779     0.63626      .   S
    Zr80   O1780     0.63637      .   S
    Zr93   O1780     0.63637      .   S
    Zr1156 O1781     0.63522      .   S
    Zr147  O1781     0.63522      .   S
    Zr1156 O1782     0.63341      .   S
    Zr1171 O1782     0.63341      .   S
    Zr106  O1783     0.63497      .   S
    Zr1197 O1783     0.63497      .   S
    Zr106  O1784     0.63319      .   S
    Zr121  O1784     0.63319      .   S
    Zr231  O1785     0.63522      .   S
    Zr1097 O1785     0.63522      .   S
    Zr231  O1786     0.63341      .   S
    Zr246  O1786     0.63341      .   S
    Zr81   O1787     0.63525      .   S
    Zr997  O1787     0.63525      .   S
    Zr81   O1788     0.63336      .   S
    Zr96   O1788     0.63336      .   S
    Zr956  O1789     0.63525      .   S
    Zr72   O1789     0.63525      .   S
    Zr956  O1790     0.63336      .   S
    Zr971  O1790     0.63336      .   S
    Zr1056 O1791     0.63497      .   S
    Zr222  O1791     0.63497      .   S
    Zr1056 O1792     0.63319      .   S
    Zr1071 O1792     0.63319      .   S
    Zr997  O1793     0.93616      .   S
    Zr976  O1793     0.93616      .   S
    Zr1097 O1794     0.93629      .   S
    Zr1076 O1794     0.93629      .   S
    Zr222  O1795     0.93653      .   S
    Zr201  O1795     0.93653      .   S
    Zr1197 O1796     0.93653      .   S
    Zr1176 O1796     0.93653      .   S
    Zr147  O1797     0.93629      .   S
    Zr126  O1797     0.93629      .   S
    Zr72   O1798     0.93616      .   S
    Zr51   O1798     0.93616      .   S
    Zr1348 O1799     0.63651      .   S
    Zr120  O1799     0.63651      .   S
    Zr1372 O1800     0.63651      .   S
    Zr1070 O1800     0.63651      .   S
    Zr1354 O1801     0.63651      .   S
    Zr1170 O1801     0.63651      .   S
    Zr1378 O1802     0.63651      .   S
    Zr245  O1802     0.63651      .   S
    Zr1336 O1803     0.63651      .   S
    Zr970  O1803     0.63651      .   S
    Zr1342 O1804     0.63651      .   S
    Zr95   O1804     0.63651      .   S
    Zr964  O1805     0.94964      .   S
    Zr950  O1805     0.94964      .   S
    Zr964  O1806     0.63761      .   S
    Zr878  O1806     0.63761      .   S
    Zr114  O1807     0.94994      .   S
    Zr100  O1807     0.94994      .   S
    Zr114  O1808     0.63746      .   S
    Zr403  O1808     0.63746      .   S
    Zr239  O1809     0.94970      .   S
    Zr225  O1809     0.94970      .   S
    Zr239  O1810     0.63776      .   S
    Zr303  O1810     0.63776      .   S
    Zr89   O1811     0.94964      .   S
    Zr75   O1811     0.94964      .   S
    Zr89   O1812     0.63761      .   S
    Zr503  O1812     0.63761      .   S
    Zr1064 O1813     0.94994      .   S
    Zr1050 O1813     0.94994      .   S
    Zr1064 O1814     0.63746      .   S
    Zr753  O1814     0.63746      .   S
    Zr1164 O1815     0.94970      .   S
    Zr1150 O1815     0.94970      .   S
    Zr1164 O1816     0.63776      .   S
    Zr628  O1816     0.63776      .   S
    Zr950  O1817     0.95084      .   S
    Zr965  O1817     0.95084      .   S
    Zr950  O1818     0.94636      .   S
    Zr973  O1818     0.94636      .   S
    Zr225  O1819     0.95084      .   S
    Zr240  O1819     0.95084      .   S
    Zr225  O1820     0.94636      .   S
    Zr248  O1820     0.94636      .   S
    Zr1150 O1821     0.95084      .   S
    Zr1165 O1821     0.95084      .   S
    Zr1150 O1822     0.94636      .   S
    Zr1173 O1822     0.94636      .   S
    Zr75   O1823     0.95084      .   S
    Zr90   O1823     0.95084      .   S
    Zr75   O1824     0.94636      .   S
    Zr98   O1824     0.94636      .   S
    Zr75   O1825     0.96649      .   S
    Zr1231 O1825     0.96649      .   S
    Zr1050 O1826     0.95084      .   S
    Zr1065 O1826     0.95084      .   S
    Zr1050 O1827     0.94636      .   S
    Zr1073 O1827     0.94636      .   S
    Zr1050 O1828     0.96649      .   S
    Zr1261 O1828     0.96649      .   S
    Zr100  O1829     0.95084      .   S
    Zr115  O1829     0.95084      .   S
    Zr100  O1830     0.94636      .   S
    Zr123  O1830     0.94636      .   S
    Zr100  O1831     0.96649      .   S
    Zr1233 O1831     0.96649      .   S
    Zr115  O1832     0.63747      .   S
    Zr104  O1832     0.63747      .   S
    Zr90   O1833     0.63747      .   S
    Zr79   O1833     0.63747      .   S
    Zr240  O1834     0.63747      .   S
    Zr229  O1834     0.63747      .   S
    Zr965  O1835     0.63747      .   S
    Zr954  O1835     0.63747      .   S
    Zr1165 O1836     0.63747      .   S
    Zr1154 O1836     0.63747      .   S
    Zr1065 O1837     0.63747      .   S
    Zr1054 O1837     0.63747      .   S
    Zr878  O1838     0.63699      .   S
    Zr888  O1838     0.63699      .   S
    Zr628  O1839     0.63699      .   S
    Zr638  O1839     0.63699      .   S
    Zr303  O1840     0.63699      .   S
    Zr313  O1840     0.63699      .   S
    Zr403  O1841     0.63699      .   S
    Zr413  O1841     0.63699      .   S
    Zr753  O1842     0.63699      .   S
    Zr763  O1842     0.63699      .   S
    Zr503  O1843     0.63699      .   S
    Zr513  O1843     0.63699      .   S
    Zr93   O1844     0.94453      .   S
    Zr1299 O1844     0.94453      .   S
    Zr243  O1845     0.94461      .   S
    Zr1305 O1845     0.94461      .   S
    Zr968  O1846     0.94453      .   S
    Zr1299 O1846     0.94453      .   S
    Zr1068 O1847     0.94483      .   S
    Zr1305 O1847     0.94483      .   S
    Zr118  O1848     0.94483      .   S
    Zr1300 O1848     0.94483      .   S
    Zr1168 O1849     0.94461      .   S
    Zr1300 O1849     0.94461      .   S
    Zr1305 O1850     0.94522      .   S
    Zr245  O1850     0.94522      .   S
    Zr1305 O1851     0.94522      .   S
    Zr1070 O1851     0.94522      .   S
    Zr1300 O1852     0.94522      .   S
    Zr1170 O1852     0.94522      .   S
    Zr1300 O1853     0.94522      .   S
    Zr120  O1853     0.94522      .   S
    Zr1299 O1854     0.94522      .   S
    Zr95   O1854     0.94522      .   S
    Zr1299 O1855     0.94522      .   S
    Zr970  O1855     0.94522      .   S
    Zr121  O1856     0.93494      .   S
    Zr1344 O1856     0.93494      .   S
    Zr1171 O1857     0.93487      .   S
    Zr1350 O1857     0.93487      .   S
    Zr96   O1858     0.93501      .   S
    Zr1338 O1858     0.93501      .   S
    Zr1071 O1859     0.93494      .   S
    Zr1368 O1859     0.93494      .   S
    Zr246  O1860     0.93487      .   S
    Zr1374 O1860     0.93487      .   S
    Zr971  O1861     0.93501      .   S
    Zr1332 O1861     0.93501      .   S
    Zr313  O1862     0.94705      .   S
    Zr300  O1862     0.94705      .   S
    Zr638  O1863     0.94705      .   S
    Zr625  O1863     0.94705      .   S
    Zr888  O1864     0.94705      .   S
    Zr875  O1864     0.94705      .   S
    Zr763  O1865     0.94705      .   S
    Zr750  O1865     0.94705      .   S
    Zr413  O1866     0.94705      .   S
    Zr400  O1866     0.94705      .   S
    Zr513  O1867     0.94705      .   S
    Zr500  O1867     0.94705      .   S
    Zr79   O1868     0.63638      .   S
    Zr91   O1868     0.63638      .   S
    Zr954  O1869     0.63638      .   S
    Zr966  O1869     0.63638      .   S
    Zr229  O1870     0.63651      .   S
    Zr241  O1870     0.63651      .   S
    Zr1054 O1871     0.63638      .   S
    Zr1066 O1871     0.63638      .   S
    Zr104  O1872     0.63638      .   S
    Zr116  O1872     0.63638      .   S
    Zr1154 O1873     0.63651      .   S
    Zr1166 O1873     0.63651      .   S
    Zr994  O1874     0.94495      .   S
    Zr976  O1874     0.94495      .   S
    Zr994  O1875     0.63562      .   S
    Zr1341 O1875     0.63562      .   S
    Zr144  O1876     0.94495      .   S
    Zr126  O1876     0.94495      .   S
    Zr144  O1877     0.63614      .   S
    Zr1353 O1877     0.63614      .   S
    Zr1094 O1878     0.94495      .   S
    Zr1076 O1878     0.94495      .   S
    Zr1094 O1879     0.63614      .   S
    Zr1377 O1879     0.63614      .   S
    Zr1194 O1880     0.94495      .   S
    Zr1176 O1880     0.94495      .   S
    Zr1194 O1881     0.63589      .   S
    Zr1347 O1881     0.63589      .   S
    Zr69   O1882     0.94495      .   S
    Zr51   O1882     0.94495      .   S
    Zr69   O1883     0.63562      .   S
    Zr1335 O1883     0.63562      .   S
    Zr219  O1884     0.94495      .   S
    Zr201  O1884     0.94495      .   S
    Zr219  O1885     0.63589      .   S
    Zr1371 O1885     0.63589      .   S
    Zr500  O1886     0.94636      .   S
    Zr523  O1886     0.94636      .   S
    Zr500  O1887     0.95084      .   S
    Zr515  O1887     0.95084      .   S
    Zr625  O1888     0.96649      .   S
    Zr1251 O1888     0.96649      .   S
    Zr625  O1889     0.94636      .   S
    Zr648  O1889     0.94636      .   S
    Zr625  O1890     0.95084      .   S
    Zr640  O1890     0.95084      .   S
    Zr400  O1891     0.94636      .   S
    Zr423  O1891     0.94636      .   S
    Zr400  O1892     0.95084      .   S
    Zr415  O1892     0.95084      .   S
    Zr875  O1893     0.96649      .   S
    Zr1271 O1893     0.96649      .   S
    Zr875  O1894     0.94636      .   S
    Zr898  O1894     0.94636      .   S
    Zr875  O1895     0.95084      .   S
    Zr890  O1895     0.95084      .   S
    Zr750  O1896     0.94636      .   S
    Zr773  O1896     0.94636      .   S
    Zr750  O1897     0.95084      .   S
    Zr765  O1897     0.95084      .   S
    Zr300  O1898     0.96649      .   S
    Zr1243 O1898     0.96649      .   S
    Zr300  O1899     0.94636      .   S
    Zr323  O1899     0.94636      .   S
    Zr300  O1900     0.95084      .   S
    Zr315  O1900     0.95084      .   S
    Zr986  O1901     0.94364      .   S
    Zr976  O1901     0.94364      .   S
    Zr986  O1902     0.63536      .   S
    Zr977  O1902     0.63536      .   S
    Zr136  O1903     0.94334      .   S
    Zr126  O1903     0.94334      .   S
    Zr136  O1904     0.63520      .   S
    Zr127  O1904     0.63520      .   S
    Zr1086 O1905     0.94334      .   S
    Zr1076 O1905     0.94334      .   S
    Zr1086 O1906     0.63520      .   S
    Zr1077 O1906     0.63520      .   S
    Zr61   O1907     0.94364      .   S
    Zr51   O1907     0.94364      .   S
    Zr61   O1908     0.63536      .   S
    Zr52   O1908     0.63536      .   S
    Zr1186 O1909     0.94357      .   S
    Zr1176 O1909     0.94357      .   S
    Zr1186 O1910     0.63551      .   S
    Zr1177 O1910     0.63551      .   S
    Zr211  O1911     0.94357      .   S
    Zr201  O1911     0.94357      .   S
    Zr211  O1912     0.63551      .   S
    Zr202  O1912     0.63551      .   S
    Zr1176 O1913     0.96297      .   S
    Zr1349 O1913     0.96297      .   S
    Zr1176 O1914     0.93573      .   S
    Zr1184 O1914     0.93573      .   S
    Zr201  O1915     0.96297      .   S
    Zr1373 O1915     0.96297      .   S
    Zr201  O1916     0.93573      .   S
    Zr209  O1916     0.93573      .   S
    Zr51   O1917     0.96249      .   S
    Zr1337 O1917     0.96249      .   S
    Zr51   O1918     0.93594      .   S
    Zr59   O1918     0.93594      .   S
    Zr1076 O1919     0.96266      .   S
    Zr1379 O1919     0.96266      .   S
    Zr1076 O1920     0.93586      .   S
    Zr1084 O1920     0.93586      .   S
    Zr126  O1921     0.96266      .   S
    Zr1355 O1921     0.96266      .   S
    Zr126  O1922     0.93586      .   S
    Zr134  O1922     0.93586      .   S
    Zr976  O1923     0.96249      .   S
    Zr1343 O1923     0.96249      .   S
    Zr976  O1924     0.93594      .   S
    Zr984  O1924     0.93594      .   S
    Zr1073 O1925     0.63606      .   S
    Zr1057 O1925     0.63606      .   S
    Zr98   O1926     0.63612      .   S
    Zr82   O1926     0.63612      .   S
    Zr973  O1927     0.63612      .   S
    Zr957  O1927     0.63612      .   S
    Zr248  O1928     0.63614      .   S
    Zr232  O1928     0.63614      .   S
    Zr123  O1929     0.63606      .   S
    Zr107  O1929     0.63606      .   S
    Zr1173 O1930     0.63614      .   S
    Zr1157 O1930     0.63614      .   S
    Zr1233 O1931     0.96051      .   S
    Zr1232 O1931     0.96051      .   S
    Zr1243 O1932     0.96051      .   S
    Zr1242 O1932     0.96051      .   S
    Zr1261 O1933     0.96051      .   S
    Zr1260 O1933     0.96051      .   S
    Zr1271 O1934     0.96051      .   S
    Zr1270 O1934     0.96051      .   S
    Zr1251 O1935     0.96051      .   S
    Zr1250 O1935     0.96051      .   S
    Zr1231 O1936     0.96051      .   S
    Zr1230 O1936     0.96051      .   S
    Zr977  O1937     0.63418      .   S
    Zr87   O1937     0.63418      .   S
    Zr127  O1938     0.63404      .   S
    Zr1162 O1938     0.63404      .   S
    Zr1077 O1939     0.63404      .   S
    Zr237  O1939     0.63404      .   S
    Zr52   O1940     0.63418      .   S
    Zr962  O1940     0.63418      .   S
    Zr202  O1941     0.63388      .   S
    Zr1062 O1941     0.63388      .   S
    Zr1177 O1942     0.63388      .   S
    Zr112  O1942     0.63388      .   S
    Zr523  O1943     0.63612      .   S
    Zr507  O1943     0.63612      .   S
    Zr898  O1944     0.63612      .   S
    Zr882  O1944     0.63612      .   S
    Zr773  O1945     0.63636      .   S
    Zr757  O1945     0.63636      .   S
    Zr648  O1946     0.63614      .   S
    Zr632  O1946     0.63614      .   S
    Zr323  O1947     0.63614      .   S
    Zr307  O1947     0.63614      .   S
    Zr423  O1948     0.63636      .   S
    Zr407  O1948     0.63636      .   S
    Zr1353 O1949     0.63614      .   S
    Zr1169 O1949     0.63614      .   S
    Zr1335 O1950     0.63617      .   S
    Zr969  O1950     0.63617      .   S
    Zr1341 O1951     0.63617      .   S
    Zr94   O1951     0.63617      .   S
    Zr1377 O1952     0.63614      .   S
    Zr244  O1952     0.63614      .   S
    Zr1371 O1953     0.63589      .   S
    Zr1069 O1953     0.63589      .   S
    Zr1347 O1954     0.63589      .   S
    Zr119  O1954     0.63589      .   S
    Zr237  O1955     0.93611      .   S
    Zr1374 O1955     0.93611      .   S
    Zr112  O1956     0.93604      .   S
    Zr1344 O1956     0.93604      .   S
    Zr1162 O1957     0.93611      .   S
    Zr1350 O1957     0.93611      .   S
    Zr87   O1958     0.93581      .   S
    Zr1338 O1958     0.93581      .   S
    Zr962  O1959     0.93581      .   S
    Zr1332 O1959     0.93581      .   S
    Zr1062 O1960     0.93604      .   S
    Zr1368 O1960     0.93604      .   S
    Zr241  O1961     0.94412      .   S
    Zr1242 O1961     0.94412      .   S
    Zr116  O1962     0.94437      .   S
    Zr1232 O1962     0.94437      .   S
    Zr91   O1963     0.94416      .   S
    Zr1230 O1963     0.94416      .   S
    Zr966  O1964     0.94416      .   S
    Zr1270 O1964     0.94416      .   S
    Zr1166 O1965     0.94412      .   S
    Zr1250 O1965     0.94412      .   S
    Zr1066 O1966     0.94437      .   S
    Zr1260 O1966     0.94437      .   S
    Zr1344 O1967     0.93494      .   S
    Zr1196 O1967     0.93494      .   S
    Zr1344 O1968     0.93604      .   S
    Zr1187 O1968     0.93604      .   S
    Zr1374 O1969     0.93487      .   S
    Zr1096 O1969     0.93487      .   S
    Zr1374 O1970     0.93611      .   S
    Zr1087 O1970     0.93611      .   S
    Zr1350 O1971     0.93487      .   S
    Zr146  O1971     0.93487      .   S
    Zr1350 O1972     0.93611      .   S
    Zr137  O1972     0.93611      .   S
    Zr1338 O1973     0.93544      .   S
    Zr996  O1973     0.93544      .   S
    Zr1338 O1974     0.93603      .   S
    Zr987  O1974     0.93603      .   S
    Zr1332 O1975     0.93544      .   S
    Zr71   O1975     0.93544      .   S
    Zr1332 O1976     0.93603      .   S
    Zr62   O1976     0.93603      .   S
    Zr1368 O1977     0.93494      .   S
    Zr221  O1977     0.93494      .   S
    Zr1368 O1978     0.93604      .   S
    Zr212  O1978     0.93604      .   S
    Zr507  O1979     0.63139      .   S
    Zr99   O1979     0.63139      .   S
    Zr632  O1980     0.63139      .   S
    Zr1174 O1980     0.63139      .   S
    Zr757  O1981     0.63139      .   S
    Zr1074 O1981     0.63139      .   S
    Zr407  O1982     0.63139      .   S
    Zr124  O1982     0.63139      .   S
    Zr882  O1983     0.63139      .   S
    Zr974  O1983     0.63139      .   S
    Zr307  O1984     0.63139      .   S
    Zr249  O1984     0.63139      .   S
    Zr1355 O1985     0.96266      .   S
    Zr1151 O1985     0.96266      .   S
    Zr1379 O1986     0.96266      .   S
    Zr226  O1986     0.96266      .   S
    Zr1337 O1987     0.96303      .   S
    Zr951  O1987     0.96303      .   S
    Zr1373 O1988     0.96297      .   S
    Zr1051 O1988     0.96297      .   S
    Zr1343 O1989     0.96303      .   S
    Zr76   O1989     0.96303      .   S
    Zr1349 O1990     0.96297      .   S
    Zr101  O1990     0.96297      .   S
    Zr996  O1991     0.63314      .   S
    Zr981  O1991     0.63314      .   S
    Zr146  O1992     0.63341      .   S
    Zr131  O1992     0.63341      .   S
    Zr221  O1993     0.63319      .   S
    Zr206  O1993     0.63319      .   S
    Zr1096 O1994     0.63341      .   S
    Zr1081 O1994     0.63341      .   S
    Zr71   O1995     0.63314      .   S
    Zr56   O1995     0.63314      .   S
    Zr1196 O1996     0.63319      .   S
    Zr1181 O1996     0.63319      .   S
    Zr957  O1997     0.63139      .   S
    Zr899  O1997     0.63139      .   S
    Zr1157 O1998     0.63139      .   S
    Zr649  O1998     0.63139      .   S
    Zr1057 O1999     0.63139      .   S
    Zr774  O1999     0.63139      .   S
    Zr82   O2000     0.63139      .   S
    Zr524  O2000     0.63139      .   S
    Zr107  O2001     0.63139      .   S
    Zr424  O2001     0.63139      .   S
    Zr232  O2002     0.63139      .   S
    Zr324  O2002     0.63139      .   S
    Zr1084 O2003     0.63450      .   S
    Zr1375 O2003     0.63450      .   S
    Zr134  O2004     0.63450      .   S
    Zr1351 O2004     0.63450      .   S
    Zr1184 O2005     0.63450      .   S
    Zr1345 O2005     0.63450      .   S
    Zr59   O2006     0.63450      .   S
    Zr1333 O2006     0.63450      .   S
    Zr209  O2007     0.63450      .   S
    Zr1369 O2007     0.63450      .   S
    Zr984  O2008     0.63450      .   S
    Zr1339 O2008     0.63450      .   S
    Zr1074 O2009     0.92446      .   S
    Zr1260 O2009     0.92446      .   S
    Zr1174 O2010     0.92457      .   S
    Zr1250 O2010     0.92457      .   S
    Zr124  O2011     0.92446      .   S
    Zr1232 O2011     0.92446      .   S
    Zr249  O2012     0.92457      .   S
    Zr1242 O2012     0.92457      .   S
    Zr974  O2013     0.92426      .   S
    Zr1270 O2013     0.92426      .   S
    Zr99   O2014     0.92426      .   S
    Zr1230 O2014     0.92426      .   S
    Zr1169 O2015     0.94495      .   S
    Zr1151 O2015     0.94495      .   S
    Zr1069 O2016     0.94495      .   S
    Zr1051 O2016     0.94495      .   S
    Zr94   O2017     0.94495      .   S
    Zr76   O2017     0.94495      .   S
    Zr969  O2018     0.94495      .   S
    Zr951  O2018     0.94495      .   S
    Zr244  O2019     0.94495      .   S
    Zr226  O2019     0.94495      .   S
    Zr119  O2020     0.94495      .   S
    Zr101  O2020     0.94495      .   S
    Zr515  O2021     0.63747      .   S
    Zr504  O2021     0.63747      .   S
    Zr640  O2022     0.63747      .   S
    Zr629  O2022     0.63747      .   S
    Zr890  O2023     0.63747      .   S
    Zr879  O2023     0.63747      .   S
    Zr765  O2024     0.63747      .   S
    Zr754  O2024     0.63747      .   S
    Zr415  O2025     0.63747      .   S
    Zr404  O2025     0.63747      .   S
    Zr315  O2026     0.63747      .   S
    Zr304  O2026     0.63747      .   S
    Zr1250 O2027     0.92457      .   S
    Zr649  O2027     0.92457      .   S
    Zr1250 O2028     0.94412      .   S
    Zr641  O2028     0.94412      .   S
    Zr1260 O2029     0.92444      .   S
    Zr774  O2029     0.92444      .   S
    Zr1260 O2030     0.94435      .   S
    Zr766  O2030     0.94435      .   S
    Zr1270 O2031     0.92426      .   S
    Zr899  O2031     0.92426      .   S
    Zr1270 O2032     0.94416      .   S
    Zr891  O2032     0.94416      .   S
    Zr1230 O2033     0.92426      .   S
    Zr524  O2033     0.92426      .   S
    Zr1230 O2034     0.94416      .   S
    Zr516  O2034     0.94416      .   S
    Zr1232 O2035     0.92444      .   S
    Zr424  O2035     0.92444      .   S
    Zr1232 O2036     0.94435      .   S
    Zr416  O2036     0.94435      .   S
    Zr1242 O2037     0.92457      .   S
    Zr324  O2037     0.92457      .   S
    Zr1242 O2038     0.94412      .   S
    Zr316  O2038     0.94412      .   S
    Zr206  O2039     0.63497      .   S
    Zr1072 O2039     0.63497      .   S
    Zr981  O2040     0.63519      .   S
    Zr97   O2040     0.63519      .   S
    Zr56   O2041     0.63519      .   S
    Zr972  O2041     0.63519      .   S
    Zr1181 O2042     0.63497      .   S
    Zr122  O2042     0.63497      .   S
    Zr131  O2043     0.63522      .   S
    Zr1172 O2043     0.63522      .   S
    Zr1081 O2044     0.63522      .   S
    Zr247  O2044     0.63522      .   S
    Zr972  O2045     0.93592      .   S
    Zr951  O2045     0.93592      .   S
    Zr247  O2046     0.93629      .   S
    Zr226  O2046     0.93629      .   S
    Zr1072 O2047     0.93653      .   S
    Zr1051 O2047     0.93653      .   S
    Zr122  O2048     0.93653      .   S
    Zr101  O2048     0.93653      .   S
    Zr97   O2049     0.93592      .   S
    Zr76   O2049     0.93592      .   S
    Zr1172 O2050     0.93629      .   S
    Zr1151 O2050     0.93629      .   S
    Zr1375 O2051     0.63450      .   S
    Zr234  O2051     0.63450      .   S
    Zr1351 O2052     0.63450      .   S
    Zr1159 O2052     0.63450      .   S
    Zr1345 O2053     0.63450      .   S
    Zr109  O2053     0.63450      .   S
    Zr1333 O2054     0.63450      .   S
    Zr959  O2054     0.63450      .   S
    Zr1369 O2055     0.63450      .   S
    Zr1059 O2055     0.63450      .   S
    Zr1339 O2056     0.63450      .   S
    Zr84   O2056     0.63450      .   S
    Zr76   O2057     0.93603      .   S
    Zr84   O2057     0.93603      .   S
    Zr76   O2058     0.94352      .   S
    Zr86   O2058     0.94352      .   S
    Zr101  O2059     0.93573      .   S
    Zr109  O2059     0.93573      .   S
    Zr101  O2060     0.94357      .   S
    Zr111  O2060     0.94357      .   S
    Zr226  O2061     0.93586      .   S
    Zr234  O2061     0.93586      .   S
    Zr226  O2062     0.94334      .   S
    Zr236  O2062     0.94334      .   S
    Zr1151 O2063     0.93586      .   S
    Zr1159 O2063     0.93586      .   S
    Zr1151 O2064     0.94334      .   S
    Zr1161 O2064     0.94334      .   S
    Zr951  O2065     0.93603      .   S
    Zr959  O2065     0.93603      .   S
    Zr951  O2066     0.94352      .   S
    Zr961  O2066     0.94352      .   S
    Zr1051 O2067     0.93573      .   S
    Zr1059 O2067     0.93573      .   S
    Zr1051 O2068     0.94357      .   S
    Zr1061 O2068     0.94357      .   S
    Zr212  O2069     0.63388      .   S
    Zr1052 O2069     0.63388      .   S
    Zr1087 O2070     0.63404      .   S
    Zr227  O2070     0.63404      .   S
    Zr137  O2071     0.63404      .   S
    Zr1152 O2071     0.63404      .   S
    Zr987  O2072     0.63396      .   S
    Zr77   O2072     0.63396      .   S
    Zr62   O2073     0.63396      .   S
    Zr952  O2073     0.63396      .   S
    Zr1187 O2074     0.63388      .   S
    Zr102  O2074     0.63388      .   S
    Zr304  O2075     0.63651      .   S
    Zr316  O2075     0.63651      .   S
    Zr504  O2076     0.63638      .   S
    Zr516  O2076     0.63638      .   S
    Zr629  O2077     0.63651      .   S
    Zr641  O2077     0.63651      .   S
    Zr879  O2078     0.63638      .   S
    Zr891  O2078     0.63638      .   S
    Zr754  O2079     0.63620      .   S
    Zr766  O2079     0.63620      .   S
    Zr404  O2080     0.63620      .   S
    Zr416  O2080     0.63620      .   S
    Zr227  O2081     0.63520      .   S
    Zr236  O2081     0.63520      .   S
    Zr77   O2082     0.63542      .   S
    Zr86   O2082     0.63542      .   S
    Zr102  O2083     0.63551      .   S
    Zr111  O2083     0.63551      .   S
    Zr952  O2084     0.63542      .   S
    Zr961  O2084     0.63542      .   S
    Zr1152 O2085     0.63520      .   S
    Zr1161 O2085     0.63520      .   S
    Zr1052 O2086     0.63551      .   S
    Zr1061 O2086     0.63551      .   S
    Zr646  O2087     0.63341      .   S
    Zr631  O2087     0.63341      .   S
    Zr646  O2088     0.93487      .   S
    Zr1392 O2088     0.93487      .   S
    Zr321  O2089     0.63341      .   S
    Zr306  O2089     0.63341      .   S
    Zr321  O2090     0.93487      .   S
    Zr1392 O2090     0.93487      .   S
    Zr421  O2091     0.63314      .   S
    Zr406  O2091     0.63314      .   S
    Zr421  O2092     0.93544      .   S
    Zr1416 O2092     0.93544      .   S
    Zr896  O2093     0.63336      .   S
    Zr881  O2093     0.63336      .   S
    Zr896  O2094     0.93501      .   S
    Zr1416 O2094     0.93501      .   S
    Zr521  O2095     0.63336      .   S
    Zr506  O2095     0.63336      .   S
    Zr521  O2096     0.93501      .   S
    Zr1440 O2096     0.93501      .   S
    Zr771  O2097     0.63314      .   S
    Zr756  O2097     0.63314      .   S
    Zr771  O2098     0.93544      .   S
    Zr1440 O2098     0.93544      .   S
    Zr881  O2099     0.63525      .   S
    Zr422  O2099     0.63525      .   S
    Zr306  O2100     0.63522      .   S
    Zr647  O2100     0.63522      .   S
    Zr506  O2101     0.63525      .   S
    Zr772  O2101     0.63525      .   S
    Zr631  O2102     0.63522      .   S
    Zr322  O2102     0.63522      .   S
    Zr756  O2103     0.63519      .   S
    Zr522  O2103     0.63519      .   S
    Zr406  O2104     0.63519      .   S
    Zr897  O2104     0.63519      .   S
    Zr1392 O2105     0.93611      .   S
    Zr637  O2105     0.93611      .   S
    Zr1392 O2106     0.93611      .   S
    Zr312  O2106     0.93611      .   S
    Zr1440 O2107     0.93581      .   S
    Zr512  O2107     0.93581      .   S
    Zr1440 O2108     0.93603      .   S
    Zr762  O2108     0.93603      .   S
    Zr1416 O2109     0.93581      .   S
    Zr887  O2109     0.93581      .   S
    Zr1416 O2110     0.93603      .   S
    Zr412  O2110     0.93603      .   S
    Zr512  O2111     0.63418      .   S
    Zr752  O2111     0.63418      .   S
    Zr637  O2112     0.63404      .   S
    Zr302  O2112     0.63404      .   S
    Zr887  O2113     0.63418      .   S
    Zr402  O2113     0.63418      .   S
    Zr312  O2114     0.63404      .   S
    Zr627  O2114     0.63404      .   S
    Zr412  O2115     0.63396      .   S
    Zr877  O2115     0.63396      .   S
    Zr762  O2116     0.63396      .   S
    Zr502  O2116     0.63396      .   S
    Zr1085 O2117     0.93534      .   S
    Zr1202 O2117     0.93534      .   S
    Zr1085 O2118     0.63402      .   S
    Zr1376 O2118     0.63402      .   S
    Zr985  O2119     0.93534      .   S
    Zr1205 O2119     0.93534      .   S
    Zr985  O2120     0.63424      .   S
    Zr1340 O2120     0.63424      .   S
    Zr60   O2121     0.93534      .   S
    Zr1202 O2121     0.93534      .   S
    Zr60   O2122     0.63424      .   S
    Zr1334 O2122     0.63424      .   S
    Zr210  O2123     0.93534      .   S
    Zr1208 O2123     0.93534      .   S
    Zr210  O2124     0.63398      .   S
    Zr1370 O2124     0.63398      .   S
    Zr1185 O2125     0.93534      .   S
    Zr1208 O2125     0.93534      .   S
    Zr1185 O2126     0.63398      .   S
    Zr1346 O2126     0.63398      .   S
    Zr135  O2127     0.93534      .   S
    Zr1205 O2127     0.93534      .   S
    Zr135  O2128     0.63402      .   S
    Zr1352 O2128     0.63402      .   S
    Zr522  O2129     0.93592      .   S
    Zr501  O2129     0.93592      .   S
    Zr322  O2130     0.93629      .   S
    Zr301  O2130     0.93629      .   S
    Zr897  O2131     0.93592      .   S
    Zr876  O2131     0.93592      .   S
    Zr647  O2132     0.93629      .   S
    Zr626  O2132     0.93629      .   S
    Zr422  O2133     0.93616      .   S
    Zr401  O2133     0.93616      .   S
    Zr772  O2134     0.93616      .   S
    Zr751  O2134     0.93616      .   S
    Zr1205 O2135     0.93478      .   S
    Zr983  O2135     0.93478      .   S
    Zr1205 O2136     0.93478      .   S
    Zr133  O2136     0.93478      .   S
    Zr1202 O2137     0.93478      .   S
    Zr58   O2137     0.93478      .   S
    Zr1202 O2138     0.93478      .   S
    Zr1083 O2138     0.93478      .   S
    Zr1202 O2139     0.96244      .   S
    Zr1490 O2139     0.96244      .   S
    Zr1208 O2140     0.93478      .   S
    Zr208  O2140     0.93478      .   S
    Zr1208 O2141     0.93478      .   S
    Zr1183 O2141     0.93478      .   S
    Zr1208 O2142     0.96235      .   S
    Zr1488 O2142     0.96235      .   S
    Zr1370 O2143     0.63398      .   S
    Zr1060 O2143     0.63398      .   S
    Zr1376 O2144     0.63402      .   S
    Zr235  O2144     0.63402      .   S
    Zr1352 O2145     0.63402      .   S
    Zr1160 O2145     0.63402      .   S
    Zr1346 O2146     0.63398      .   S
    Zr110  O2146     0.63398      .   S
    Zr1340 O2147     0.63396      .   S
    Zr85   O2147     0.63396      .   S
    Zr1334 O2148     0.63396      .   S
    Zr960  O2148     0.63396      .   S
    Zr877  O2149     0.63542      .   S
    Zr886  O2149     0.63542      .   S
    Zr302  O2150     0.63520      .   S
    Zr311  O2150     0.63520      .   S
    Zr752  O2151     0.63536      .   S
    Zr761  O2151     0.63536      .   S
    Zr502  O2152     0.63542      .   S
    Zr511  O2152     0.63542      .   S
    Zr627  O2153     0.63520      .   S
    Zr636  O2153     0.63520      .   S
    Zr402  O2154     0.63536      .   S
    Zr411  O2154     0.63536      .   S
    Zr208  O2155     0.63422      .   S
    Zr1472 O2155     0.63422      .   S
    Zr983  O2156     0.63422      .   S
    Zr1467 O2156     0.63422      .   S
    Zr58   O2157     0.63422      .   S
    Zr1466 O2157     0.63422      .   S
    Zr133  O2158     0.63422      .   S
    Zr1469 O2158     0.63422      .   S
    Zr1083 O2159     0.63422      .   S
    Zr1473 O2159     0.63422      .   S
    Zr1183 O2160     0.63422      .   S
    Zr1468 O2160     0.63422      .   S
    Zr1445 O2161     0.96303      .   S
    Zr501  O2161     0.96303      .   S
    Zr1445 O2162     0.96249      .   S
    Zr751  O2162     0.96249      .   S
    Zr1397 O2163     0.96266      .   S
    Zr626  O2163     0.96266      .   S
    Zr1397 O2164     0.96266      .   S
    Zr301  O2164     0.96266      .   S
    Zr1421 O2165     0.96303      .   S
    Zr876  O2165     0.96303      .   S
    Zr1421 O2166     0.96249      .   S
    Zr401  O2166     0.96249      .   S
    Zr311  O2167     0.94334      .   S
    Zr301  O2167     0.94334      .   S
    Zr886  O2168     0.94352      .   S
    Zr876  O2168     0.94352      .   S
    Zr636  O2169     0.94334      .   S
    Zr626  O2169     0.94334      .   S
    Zr761  O2170     0.94364      .   S
    Zr751  O2170     0.94364      .   S
    Zr411  O2171     0.94364      .   S
    Zr401  O2171     0.94364      .   S
    Zr511  O2172     0.94352      .   S
    Zr501  O2172     0.94352      .   S
    Zr1467 O2173     0.63422      .   S
    Zr83   O2173     0.63422      .   S
    Zr1468 O2174     0.63422      .   S
    Zr108  O2174     0.63422      .   S
    Zr1473 O2175     0.63422      .   S
    Zr233  O2175     0.63422      .   S
    Zr1472 O2176     0.63422      .   S
    Zr1058 O2176     0.63422      .   S
    Zr1469 O2177     0.63422      .   S
    Zr1158 O2177     0.63422      .   S
    Zr1466 O2178     0.63422      .   S
    Zr958  O2178     0.63422      .   S
    Zr1160 O2179     0.93534      .   S
    Zr1210 O2179     0.93534      .   S
    Zr1060 O2180     0.93534      .   S
    Zr1200 O2180     0.93534      .   S
    Zr235  O2181     0.93534      .   S
    Zr1209 O2181     0.93534      .   S
    Zr85   O2182     0.93534      .   S
    Zr1203 O2182     0.93534      .   S
    Zr960  O2183     0.93534      .   S
    Zr1207 O2183     0.93534      .   S
    Zr110  O2184     0.93534      .   S
    Zr1204 O2184     0.93534      .   S
    Zr626  O2185     0.94495      .   S
    Zr644  O2185     0.94495      .   S
    Zr626  O2186     0.93586      .   S
    Zr634  O2186     0.93586      .   S
    Zr876  O2187     0.94495      .   S
    Zr894  O2187     0.94495      .   S
    Zr876  O2188     0.93603      .   S
    Zr884  O2188     0.93603      .   S
    Zr501  O2189     0.94495      .   S
    Zr519  O2189     0.94495      .   S
    Zr501  O2190     0.93603      .   S
    Zr509  O2190     0.93603      .   S
    Zr301  O2191     0.94495      .   S
    Zr319  O2191     0.94495      .   S
    Zr301  O2192     0.93586      .   S
    Zr309  O2192     0.93586      .   S
    Zr401  O2193     0.94495      .   S
    Zr419  O2193     0.94495      .   S
    Zr401  O2194     0.93594      .   S
    Zr409  O2194     0.93594      .   S
    Zr751  O2195     0.94495      .   S
    Zr769  O2195     0.94495      .   S
    Zr751  O2196     0.93594      .   S
    Zr759  O2196     0.93594      .   S
    Zr1491 O2197     0.96217      .   S
    Zr1203 O2197     0.96217      .   S
    Zr1491 O2198     0.96244      .   S
    Zr1210 O2198     0.96244      .   S
    Zr1490 O2199     0.96217      .   S
    Zr1207 O2199     0.96217      .   S
    Zr1488 O2200     0.96235      .   S
    Zr1204 O2200     0.96235      .   S
    Zr642  O2201     0.63735  1_455   S
    Zr630  O2201     0.63735      .   S
    Zr642  O2202     0.94911      .   S
    Zr1284 O2202     0.94911      .   S
    Zr417  O2203     0.63735      .   S
    Zr405  O2203     0.63735      .   S
    Zr417  O2204     0.94911      .   S
    Zr1288 O2204     0.94911      .   S
    Zr517  O2205     0.63735  1_455   S
    Zr505  O2205     0.63735      .   S
    Zr517  O2206     0.94911      .   S
    Zr1292 O2206     0.94911      .   S
    Zr892  O2207     0.63735  1_545   S
    Zr880  O2207     0.63735      .   S
    Zr892  O2208     0.94911      .   S
    Zr1288 O2208     0.94911      .   S
    Zr767  O2209     0.63735      .   S
    Zr755  O2209     0.63735      .   S
    Zr767  O2210     0.94911      .   S
    Zr1292 O2210     0.94911      .   S
    Zr317  O2211     0.63735  1_545   S
    Zr305  O2211     0.63735      .   S
    Zr317  O2212     0.94911      .   S
    Zr1284 O2212     0.94911      .   S
    Zr305  O2213     0.63626      .   S
    Zr318  O2213     0.63626      .   S
    Zr505  O2214     0.63637      .   S
    Zr518  O2214     0.63637      .   S
    Zr755  O2215     0.63643      .   S
    Zr768  O2215     0.63643      .   S
    Zr880  O2216     0.63637      .   S
    Zr893  O2216     0.63637      .   S
    Zr405  O2217     0.63643      .   S
    Zr418  O2217     0.63643      .   S
    Zr630  O2218     0.63626      .   S
    Zr643  O2218     0.63626      .   S
    Zr644  O2219     0.63614      .   S
    Zr1395 O2219     0.63614      .   S
    Zr769  O2220     0.63562      .   S
    Zr1443 O2220     0.63562      .   S
    Zr419  O2221     0.63562      .   S
    Zr1419 O2221     0.63562      .   S
    Zr319  O2222     0.63614      .   S
    Zr1395 O2222     0.63614      .   S
    Zr519  O2223     0.63617      .   S
    Zr1443 O2223     0.63617      .   S
    Zr894  O2224     0.63617      .   S
    Zr1419 O2224     0.63617      .   S
    Zr958  O2225     0.93478      .   S
    Zr1207 O2225     0.93478      .   S
    Zr233  O2226     0.93478      .   S
    Zr1209 O2226     0.93478      .   S
    Zr108  O2227     0.93478      .   S
    Zr1204 O2227     0.93478      .   S
    Zr83   O2228     0.93478      .   S
    Zr1203 O2228     0.93478      .   S
    Zr1158 O2229     0.93478      .   S
    Zr1210 O2229     0.93478      .   S
    Zr1058 O2230     0.93478      .   S
    Zr1200 O2230     0.93478      .   S
    Zr1037 O2231     0.63418      .   S
    Zr252  O2231     0.63418      .   S
    Zr1037 O2232     0.93581      .   S
    Zr1380 O2232     0.93581      .   S
    Zr1137 O2233     0.63396      .   S
    Zr177  O2233     0.63396      .   S
    Zr1137 O2234     0.93603      .   S
    Zr1362 O2234     0.93603      .   S
    Zr262  O2235     0.63396      .   S
    Zr1027 O2235     0.63396      .   S
    Zr262  O2236     0.93603      .   S
    Zr1380 O2236     0.93603      .   S
    Zr187  O2237     0.63418      .   S
    Zr1127 O2237     0.63418      .   S
    Zr187  O2238     0.93581      .   S
    Zr1362 O2238     0.93581      .   S
    Zr12   O2239     0.63388      .   S
    Zr927  O2239     0.63388      .   S
    Zr12   O2240     0.93604      .   S
    Zr1320 O2240     0.93604      .   S
    Zr937  O2241     0.63388      .   S
    Zr2    O2241     0.63388      .   S
    Zr937  O2242     0.93604      .   S
    Zr1320 O2242     0.93604      .   S
    Zr1203 O2243     0.93534      .   S
    Zr1035 O2243     0.93534      .   S
    Zr1203 O2244     0.93478      .   S
    Zr1033 O2244     0.93478      .   S
    Zr1204 O2245     0.93534      .   S
    Zr935  O2245     0.93534      .   S
    Zr1204 O2246     0.93478      .   S
    Zr933  O2246     0.93478      .   S
    Zr1207 O2247     0.93534      .   S
    Zr185  O2247     0.93534      .   S
    Zr1207 O2248     0.93478      .   S
    Zr183  O2248     0.93478      .   S
    Zr1209 O2249     0.93534      .   S
    Zr1135 O2249     0.93534      .   S
    Zr1209 O2250     0.93478      .   S
    Zr1133 O2250     0.93478      .   S
    Zr1200 O2251     0.93534      .   S
    Zr10   O2251     0.93534      .   S
    Zr1200 O2252     0.93478      .   S
    Zr8    O2252     0.93478      .   S
    Zr1210 O2253     0.93534      .   S
    Zr260  O2253     0.93534      .   S
    Zr1210 O2254     0.93478      .   S
    Zr258  O2254     0.93478      .   S
    Zr927  O2255     0.63551      .   S
    Zr936  O2255     0.63551      .   S
    Zr177  O2256     0.63542      .   S
    Zr186  O2256     0.63542      .   S
    Zr2    O2257     0.63551      .   S
    Zr11   O2257     0.63551      .   S
    Zr1127 O2258     0.63536      .   S
    Zr1136 O2258     0.63536      .   S
    Zr1027 O2259     0.63542      .   S
    Zr1036 O2259     0.63542      .   S
    Zr252  O2260     0.63536      .   S
    Zr261  O2260     0.63536      .   S
    Zr309  O2261     0.63450      .   S
    Zr1393 O2261     0.63450      .   S
    Zr884  O2262     0.63450      .   S
    Zr1417 O2262     0.63450      .   S
    Zr634  O2263     0.63450      .   S
    Zr1393 O2263     0.63450      .   S
    Zr409  O2264     0.63450      .   S
    Zr1417 O2264     0.63450      .   S
    Zr509  O2265     0.63450      .   S
    Zr1441 O2265     0.63450      .   S
    Zr759  O2266     0.63450      .   S
    Zr1441 O2266     0.63450      .   S
    Zr643  O2267     0.94461      .   S
    Zr1309 O2267     0.94461      .   S
    Zr893  O2268     0.94453      .   S
    Zr1313 O2268     0.94453      .   S
    Zr318  O2269     0.94461      .   S
    Zr1308 O2269     0.94461      .   S
    Zr418  O2270     0.94466      .   S
    Zr1312 O2270     0.94466      .   S
    Zr518  O2271     0.94453      .   S
    Zr1316 O2271     0.94453      .   S
    Zr768  O2272     0.94466      .   S
    Zr1317 O2272     0.94466      .   S
    Zr1284 O2273     0.94911      .   S
    Zr342  O2273     0.94911      .   S
    Zr1284 O2274     0.94911      .   S
    Zr617  O2274     0.94911      .   S
    Zr1288 O2275     0.94911      .   S
    Zr867  O2275     0.94911      .   S
    Zr1288 O2276     0.94911      .   S
    Zr442  O2276     0.94911      .   S
    Zr1292 O2277     0.94911      .   S
    Zr542  O2277     0.94911      .   S
    Zr1292 O2278     0.94911      .   S
    Zr792  O2278     0.94911      .   S
    Zr1135 O2279     0.63424      .   S
    Zr1364 O2279     0.63424      .   S
    Zr185  O2280     0.63396      .   S
    Zr1364 O2280     0.63396      .   S
    Zr260  O2281     0.63424      .   S
    Zr1382 O2281     0.63424      .   S
    Zr10   O2282     0.63398      .   S
    Zr1322 O2282     0.63398      .   S
    Zr1035 O2283     0.63396      .   S
    Zr1382 O2283     0.63396      .   S
    Zr935  O2284     0.63398      .   S
    Zr1322 O2284     0.63398      .   S
    Zr1320 O2285     0.93494      .   S
    Zr946  O2285     0.93494      .   S
    Zr1320 O2286     0.93494      .   S
    Zr21   O2286     0.93494      .   S
    Zr1380 O2287     0.93544      .   S
    Zr271  O2287     0.93544      .   S
    Zr1380 O2288     0.93501      .   S
    Zr1046 O2288     0.93501      .   S
    Zr1362 O2289     0.93501      .   S
    Zr196  O2289     0.93501      .   S
    Zr1362 O2290     0.93544      .   S
    Zr1146 O2290     0.93544      .   S
    Zr186  O2291     0.94352      .   S
    Zr176  O2291     0.94352      .   S
    Zr936  O2292     0.94357      .   S
    Zr926  O2292     0.94357      .   S
    Zr1036 O2293     0.94352      .   S
    Zr1026 O2293     0.94352      .   S
    Zr11   O2294     0.94357      .   S
    Zr1    O2294     0.94357      .   S
    Zr1136 O2295     0.94364      .   S
    Zr1126 O2295     0.94364      .   S
    Zr261  O2296     0.94364      .   S
    Zr251  O2296     0.94364      .   S
    Zr1444 O2297     0.63651      .   S
    Zr520  O2297     0.63651      .   S
    Zr1444 O2298     0.63651      .   S
    Zr770  O2298     0.63651      .   S
    Zr1420 O2299     0.63651      .   S
    Zr420  O2299     0.63651      .   S
    Zr1420 O2300     0.63651      .   S
    Zr895  O2300     0.63651      .   S
    Zr1396 O2301     0.63651      .   S
    Zr320  O2301     0.63651      .   S
    Zr1396 O2302     0.63651      .   S
    Zr645  O2302     0.63651      .   S
    Zr867  O2303     0.63735      .   S
    Zr855  O2303     0.63735      .   S
    Zr542  O2304     0.63735      .   S
    Zr530  O2304     0.63735      .   S
    Zr792  O2305     0.63735  1_455   S
    Zr780  O2305     0.63735      .   S
    Zr342  O2306     0.63735  1_455   S
    Zr330  O2306     0.63735      .   S
    Zr617  O2307     0.63735  1_545   S
    Zr605  O2307     0.63735      .   S
    Zr442  O2308     0.63735  1_545   S
    Zr430  O2308     0.63735      .   S
    Zr1289 O2309     0.96312      .   S
    Zr1313 O2309     0.96312      .   S
    Zr1289 O2310     0.96312  1_565   S
    Zr1312 O2310     0.96312      .   S
    Zr1293 O2311     0.96312      .   S
    Zr1316 O2311     0.96312      .   S
    Zr1293 O2312     0.96312  1_655   S
    Zr1317 O2312     0.96312      .   S
    Zr1285 O2313     0.96312  1_565   S
    Zr1309 O2313     0.96312      .   S
    Zr1285 O2314     0.96312  1_655   S
    Zr1308 O2314     0.96312      .   S
    Zr8    O2315     0.63422      .   S
    Zr1464 O2315     0.63422      .   S
    Zr933  O2316     0.63422      .   S
    Zr1464 O2316     0.63422      .   S
    Zr1133 O2317     0.63422      .   S
    Zr1471 O2317     0.63422      .   S
    Zr1033 O2318     0.63422      .   S
    Zr1474 O2318     0.63422      .   S
    Zr258  O2319     0.63422      .   S
    Zr1474 O2319     0.63422      .   S
    Zr183  O2320     0.63422      .   S
    Zr1471 O2320     0.63422      .   S
    Zr520  O2321     0.94522      .   S
    Zr1316 O2321     0.94522      .   S
    Zr770  O2322     0.94522  1_655   S
    Zr1317 O2322     0.94522      .   S
    Zr420  O2323     0.94522  1_565   S
    Zr1312 O2323     0.94522      .   S
    Zr320  O2324     0.94522  1_655   S
    Zr1308 O2324     0.94522      .   S
    Zr895  O2325     0.94522      .   S
    Zr1313 O2325     0.94522      .   S
    Zr645  O2326     0.94522  1_565   S
    Zr1309 O2326     0.94522      .   S
    Zr196  O2327     0.63336      .   S
    Zr181  O2327     0.63336      .   S
    Zr271  O2328     0.63314      .   S
    Zr256  O2328     0.63314      .   S
    Zr946  O2329     0.63319      .   S
    Zr931  O2329     0.63319      .   S
    Zr1046 O2330     0.63336      .   S
    Zr1031 O2330     0.63336      .   S
    Zr21   O2331     0.63319      .   S
    Zr6    O2331     0.63319      .   S
    Zr1146 O2332     0.63314      .   S
    Zr1131 O2332     0.63314      .   S
    Zr1316 O2333     0.94453      .   S
    Zr793  O2333     0.94453      .   S
    Zr1316 O2334     0.94522      .   S
    Zr795  O2334     0.94522      .   S
    Zr1317 O2335     0.94466      .   S
    Zr543  O2335     0.94466      .   S
    Zr1317 O2336     0.94522      .   S
    Zr545  O2336     0.94522  1_655   S
    Zr1313 O2337     0.94453      .   S
    Zr443  O2337     0.94453      .   S
    Zr1313 O2338     0.94522      .   S
    Zr445  O2338     0.94522      .   S
    Zr1312 O2339     0.94466      .   S
    Zr868  O2339     0.94466      .   S
    Zr1312 O2340     0.94522      .   S
    Zr870  O2340     0.94522  1_565   S
    Zr1309 O2341     0.94483      .   S
    Zr343  O2341     0.94483      .   S
    Zr1309 O2342     0.94522      .   S
    Zr345  O2342     0.94522  1_565   S
    Zr1308 O2343     0.94483      .   S
    Zr618  O2343     0.94483      .   S
    Zr1308 O2344     0.94522      .   S
    Zr620  O2344     0.94522  1_655   S
    Zr855  O2345     0.63643      .   S
    Zr868  O2345     0.63643      .   S
    Zr430  O2346     0.63637      .   S
    Zr443  O2346     0.63637      .   S
    Zr530  O2347     0.63643      .   S
    Zr543  O2347     0.63643      .   S
    Zr780  O2348     0.63637      .   S
    Zr793  O2348     0.63637      .   S
    Zr330  O2349     0.63614      .   S
    Zr343  O2349     0.63614      .   S
    Zr605  O2350     0.63614      .   S
    Zr618  O2350     0.63614      .   S
    Zr1325 O2351     0.96297      .   S
    Zr1    O2351     0.96297      .   S
    Zr1325 O2352     0.96297      .   S
    Zr926  O2352     0.96297      .   S
    Zr1385 O2353     0.96303      .   S
    Zr1026 O2353     0.96303      .   S
    Zr1385 O2354     0.96249      .   S
    Zr251  O2354     0.96249      .   S
    Zr1367 O2355     0.96249      .   S
    Zr1126 O2355     0.96249      .   S
    Zr1367 O2356     0.96303      .   S
    Zr176  O2356     0.96303      .   S
    Zr1321 O2357     0.63450      .   S
    Zr934  O2357     0.63450      .   S
    Zr1321 O2358     0.63450      .   S
    Zr9    O2358     0.63450      .   S
    Zr1363 O2359     0.63450      .   S
    Zr184  O2359     0.63450      .   S
    Zr1363 O2360     0.63450      .   S
    Zr1134 O2360     0.63450      .   S
    Zr1381 O2361     0.63450      .   S
    Zr259  O2361     0.63450      .   S
    Zr1381 O2362     0.63450      .   S
    Zr1034 O2362     0.63450      .   S
    Zr259  O2363     0.93594      .   S
    Zr251  O2363     0.93594      .   S
    Zr934  O2364     0.93573      .   S
    Zr926  O2364     0.93573      .   S
    Zr1034 O2365     0.93603      .   S
    Zr1026 O2365     0.93603      .   S
    Zr184  O2366     0.93603      .   S
    Zr176  O2366     0.93603      .   S
    Zr1134 O2367     0.93594      .   S
    Zr1126 O2367     0.93594      .   S
    Zr9    O2368     0.93573      .   S
    Zr1    O2368     0.93573      .   S
    Zr931  O2369     0.63497      .   S
    Zr22   O2369     0.63497      .   S
    Zr1031 O2370     0.63525      .   S
    Zr272  O2370     0.63525      .   S
    Zr181  O2371     0.63525      .   S
    Zr1147 O2371     0.63525      .   S
    Zr1131 O2372     0.63519      .   S
    Zr197  O2372     0.63519      .   S
    Zr6    O2373     0.63497      .   S
    Zr947  O2373     0.63497      .   S
    Zr256  O2374     0.63519      .   S
    Zr1047 O2374     0.63519      .   S
    Zr1126 O2375     0.93616      .   S
    Zr1147 O2375     0.93616      .   S
    Zr1126 O2376     0.94495      .   S
    Zr1144 O2376     0.94495      .   S
    Zr1    O2377     0.93653      .   S
    Zr22   O2377     0.93653      .   S
    Zr1    O2378     0.94495      .   S
    Zr19   O2378     0.94495      .   S
    Zr926  O2379     0.93653      .   S
    Zr947  O2379     0.93653      .   S
    Zr926  O2380     0.94495      .   S
    Zr944  O2380     0.94495      .   S
    Zr1026 O2381     0.93592      .   S
    Zr1047 O2381     0.93592      .   S
    Zr1026 O2382     0.94495      .   S
    Zr1044 O2382     0.94495      .   S
    Zr176  O2383     0.93592      .   S
    Zr197  O2383     0.93592      .   S
    Zr176  O2384     0.94495      .   S
    Zr194  O2384     0.94495      .   S
    Zr251  O2385     0.93616      .   S
    Zr272  O2385     0.93616      .   S
    Zr251  O2386     0.94495      .   S
    Zr269  O2386     0.94495      .   S
    Zr795  O2387     0.63651      .   S
    Zr1450 O2387     0.63651      .   S
    Zr620  O2388     0.63651      .   S
    Zr1402 O2388     0.63651      .   S
    Zr445  O2389     0.63651      .   S
    Zr1426 O2389     0.63651      .   S
    Zr345  O2390     0.63651      .   S
    Zr1402 O2390     0.63651      .   S
    Zr870  O2391     0.63651      .   S
    Zr1426 O2391     0.63651      .   S
    Zr545  O2392     0.63651      .   S
    Zr1450 O2392     0.63651      .   S
    Zr269  O2393     0.63562      .   S
    Zr1383 O2393     0.63562      .   S
    Zr944  O2394     0.63589      .   S
    Zr1323 O2394     0.63589      .   S
    Zr194  O2395     0.63617      .   S
    Zr1365 O2395     0.63617      .   S
    Zr19   O2396     0.63589      .   S
    Zr1323 O2396     0.63589      .   S
    Zr1144 O2397     0.63562      .   S
    Zr1365 O2397     0.63562      .   S
    Zr1044 O2398     0.63617      .   S
    Zr1383 O2398     0.63617      .   S
    Zr440  O2399     0.63747      .   S
    Zr429  O2399     0.63747      .   S
    Zr440  O2400     0.95084      .   S
    Zr425  O2400     0.95084      .   S
    Zr790  O2401     0.63747      .   S
    Zr779  O2401     0.63747      .   S
    Zr790  O2402     0.95084      .   S
    Zr775  O2402     0.95084      .   S
    Zr340  O2403     0.63747      .   S
    Zr329  O2403     0.63747      .   S
    Zr340  O2404     0.95084      .   S
    Zr325  O2404     0.95084      .   S
    Zr615  O2405     0.63747      .   S
    Zr604  O2405     0.63747      .   S
    Zr615  O2406     0.95084      .   S
    Zr600  O2406     0.95084      .   S
    Zr865  O2407     0.63747      .   S
    Zr854  O2407     0.63747      .   S
    Zr865  O2408     0.95084      .   S
    Zr850  O2408     0.95084      .   S
    Zr540  O2409     0.63747      .   S
    Zr529  O2409     0.63747      .   S
    Zr540  O2410     0.95084      .   S
    Zr525  O2410     0.95084      .   S
    Zr1394 O2411     0.63402      .   S
    Zr310  O2411     0.63402      .   S
    Zr1394 O2412     0.63402      .   S
    Zr635  O2412     0.63402      .   S
    Zr1418 O2413     0.63396      .   S
    Zr885  O2413     0.63396      .   S
    Zr1418 O2414     0.63424      .   S
    Zr410  O2414     0.63424      .   S
    Zr1442 O2415     0.63396      .   S
    Zr510  O2415     0.63396      .   S
    Zr1442 O2416     0.63424      .   S
    Zr760  O2416     0.63424      .   S
    Zr873  O2417     0.63636      .   S
    Zr857  O2417     0.63636      .   S
    Zr873  O2418     0.94636      .   S
    Zr850  O2418     0.94636      .   S
    Zr623  O2419     0.63606      .   S
    Zr607  O2419     0.63606      .   S
    Zr623  O2420     0.94636      .   S
    Zr600  O2420     0.94636      .   S
    Zr448  O2421     0.63612      .   S
    Zr432  O2421     0.63612      .   S
    Zr448  O2422     0.94636      .   S
    Zr425  O2422     0.94636      .   S
    Zr798  O2423     0.63612      .   S
    Zr782  O2423     0.63612      .   S
    Zr798  O2424     0.94636      .   S
    Zr775  O2424     0.94636      .   S
    Zr348  O2425     0.63606      .   S
    Zr332  O2425     0.63606      .   S
    Zr348  O2426     0.94636      .   S
    Zr325  O2426     0.94636      .   S
    Zr548  O2427     0.63636      .   S
    Zr532  O2427     0.63636      .   S
    Zr548  O2428     0.94636      .   S
    Zr525  O2428     0.94636      .   S
    Zr604  O2429     0.63638      .   S
    Zr616  O2429     0.63638      .   S
    Zr329  O2430     0.63638      .   S
    Zr341  O2430     0.63638      .   S
    Zr429  O2431     0.63638      .   S
    Zr441  O2431     0.63638      .   S
    Zr529  O2432     0.63620      .   S
    Zr541  O2432     0.63620      .   S
    Zr779  O2433     0.63638      .   S
    Zr791  O2433     0.63638      .   S
    Zr854  O2434     0.63620      .   S
    Zr866  O2434     0.63620      .   S
    Zr607  O2435     0.63139      .   S
    Zr1149 O2435     0.63139      .   S
    Zr532  O2436     0.63139      .   S
    Zr24   O2436     0.63139      .   S
    Zr782  O2437     0.63139      .   S
    Zr1049 O2437     0.63139      .   S
    Zr332  O2438     0.63139      .   S
    Zr274  O2438     0.63139      .   S
    Zr432  O2439     0.63139      .   S
    Zr199  O2439     0.63139      .   S
    Zr857  O2440     0.63139      .   S
    Zr949  O2440     0.63139      .   S
    Zr510  O2441     0.93534      .   S
    Zr1220 O2441     0.93534      .   S
    Zr885  O2442     0.93534      .   S
    Zr1220 O2442     0.93534      .   S
    Zr310  O2443     0.93534      .   S
    Zr1212 O2443     0.93534      .   S
    Zr410  O2444     0.93534      .   S
    Zr1216 O2444     0.93534      .   S
    Zr760  O2445     0.93534      .   S
    Zr1212 O2445     0.93534      .   S
    Zr635  O2446     0.93534      .   S
    Zr1216 O2446     0.93534      .   S
    Zr850  O2447     0.94705      .   S
    Zr863  O2447     0.94705      .   S
    Zr850  O2448     0.94974      .   S
    Zr864  O2448     0.94974      .   S
    Zr850  O2449     0.96649      .   S
    Zr1269 O2449     0.96649      .   S
    Zr425  O2450     0.94705      .   S
    Zr438  O2450     0.94705      .   S
    Zr425  O2451     0.94964      .   S
    Zr439  O2451     0.94964      .   S
    Zr775  O2452     0.94705      .   S
    Zr788  O2452     0.94705      .   S
    Zr775  O2453     0.94964      .   S
    Zr789  O2453     0.94964      .   S
    Zr600  O2454     0.94705      .   S
    Zr613  O2454     0.94705      .   S
    Zr600  O2455     0.94994      .   S
    Zr614  O2455     0.94994      .   S
    Zr525  O2456     0.94705      .   S
    Zr538  O2456     0.94705      .   S
    Zr525  O2457     0.94974      .   S
    Zr539  O2457     0.94974      .   S
    Zr525  O2458     0.96649      .   S
    Zr1225 O2458     0.96649      .   S
    Zr325  O2459     0.94705      .   S
    Zr338  O2459     0.94705      .   S
    Zr325  O2460     0.94994      .   S
    Zr339  O2460     0.94994      .   S
    Zr274  O2461     0.92444      .   S
    Zr1244 O2461     0.92444      .   S
    Zr199  O2462     0.92426      .   S
    Zr1238 O2462     0.92426      .   S
    Zr24   O2463     0.92446      .   S
    Zr1224 O2463     0.92446      .   S
    Zr1149 O2464     0.92444      .   S
    Zr1248 O2464     0.92444      .   S
    Zr949  O2465     0.92446      .   S
    Zr1268 O2465     0.92446      .   S
    Zr1049 O2466     0.92426      .   S
    Zr1262 O2466     0.92426      .   S
    Zr791  O2467     0.94416      .   S
    Zr1262 O2467     0.94416      .   S
    Zr441  O2468     0.94416      .   S
    Zr1238 O2468     0.94416      .   S
    Zr541  O2469     0.94435      .   S
    Zr1224 O2469     0.94435      .   S
    Zr616  O2470     0.94437      .   S
    Zr1248 O2470     0.94437      .   S
    Zr866  O2471     0.94435      .   S
    Zr1268 O2471     0.94435      .   S
    Zr341  O2472     0.94437      .   S
    Zr1244 O2472     0.94437      .   S
    Zr1465 O2473     0.63422      .   S
    Zr33   O2473     0.63422      .   S
    Zr1465 O2474     0.63422      .   S
    Zr908  O2474     0.63422      .   S
    Zr1470 O2475     0.63422      .   S
    Zr1108 O2475     0.63422      .   S
    Zr1470 O2476     0.63422      .   S
    Zr158  O2476     0.63422      .   S
    Zr1475 O2477     0.63422      .   S
    Zr283  O2477     0.63422      .   S
    Zr1475 O2478     0.63422      .   S
    Zr1008 O2478     0.63422      .   S
    Zr438  O2479     0.63699      .   S
    Zr428  O2479     0.63699      .   S
    Zr613  O2480     0.63699      .   S
    Zr603  O2480     0.63699      .   S
    Zr863  O2481     0.63699      .   S
    Zr853  O2481     0.63699      .   S
    Zr788  O2482     0.63699      .   S
    Zr778  O2482     0.63699      .   S
    Zr338  O2483     0.63699      .   S
    Zr328  O2483     0.63699      .   S
    Zr538  O2484     0.63699      .   S
    Zr528  O2484     0.63699      .   S
    Zr614  O2485     0.63746      .   S
    Zr1128 O2485     0.63746      .   S
    Zr864  O2486     0.63754      .   S
    Zr928  O2486     0.63754      .   S
    Zr789  O2487     0.63761      .   S
    Zr1028 O2487     0.63761      .   S
    Zr339  O2488     0.63746      .   S
    Zr253  O2488     0.63746      .   S
    Zr539  O2489     0.63754      .   S
    Zr3    O2489     0.63754      .   S
    Zr439  O2490     0.63761      .   S
    Zr178  O2490     0.63761      .   S
    Zr283  O2491     0.93478      .   S
    Zr1211 O2491     0.93478      .   S
    Zr33   O2492     0.93478      .   S
    Zr1201 O2492     0.93478      .   S
    Zr908  O2493     0.93478      .   S
    Zr1206 O2493     0.93478      .   S
    Zr1108 O2494     0.93478      .   S
    Zr1211 O2494     0.93478      .   S
    Zr158  O2495     0.93478      .   S
    Zr1206 O2495     0.93478      .   S
    Zr1008 O2496     0.93478      .   S
    Zr1201 O2496     0.93478      .   S
    Zr1492 O2497     0.96244      .   S
    Zr1216 O2497     0.96244      .   S
    Zr1492 O2498     0.96217      .   S
    Zr1220 O2498     0.96217      .   S
    Zr1212 O2499     0.93478      .   S
    Zr758  O2499     0.93478      .   S
    Zr1212 O2500     0.93478      .   S
    Zr308  O2500     0.93478      .   S
    Zr1216 O2501     0.93478      .   S
    Zr408  O2501     0.93478      .   S
    Zr1216 O2502     0.93478      .   S
    Zr633  O2502     0.93478      .   S
    Zr1220 O2503     0.93478      .   S
    Zr883  O2503     0.93478      .   S
    Zr1220 O2504     0.93478      .   S
    Zr508  O2504     0.93478      .   S
    Zr328  O2505     0.63754      .   S
    Zr264  O2505     0.63754      .   S
    Zr603  O2506     0.63754      .   S
    Zr1139 O2506     0.63754      .   S
    Zr528  O2507     0.63746      .   S
    Zr14   O2507     0.63746      .   S
    Zr853  O2508     0.63746      .   S
    Zr939  O2508     0.63746      .   S
    Zr428  O2509     0.63761      .   S
    Zr189  O2509     0.63761      .   S
    Zr778  O2510     0.63761      .   S
    Zr1039 O2510     0.63761      .   S
    Zr1268 O2511     0.96051      .   S
    Zr1269 O2511     0.96051      .   S
    Zr1268 O2512     0.94437      .   S
    Zr941  O2512     0.94437      .   S
    Zr1268 O2513     0.92444      .   S
    Zr874  O2513     0.92444      .   S
    Zr1248 O2514     0.96051      .   S
    Zr1249 O2514     0.96051      .   S
    Zr1248 O2515     0.94435      .   S
    Zr1141 O2515     0.94435      .   S
    Zr1248 O2516     0.92446      .   S
    Zr624  O2516     0.92446      .   S
    Zr1263 O2517     0.96051      .   S
    Zr1262 O2517     0.96051      .   S
    Zr1263 O2518     0.96649      .   S
    Zr1025 O2518     0.96649      .   S
    Zr1249 O2519     0.96649      .   S
    Zr1125 O2519     0.96649      .   S
    Zr1224 O2520     0.96051      .   S
    Zr1225 O2520     0.96051      .   S
    Zr1224 O2521     0.94437      .   S
    Zr16   O2521     0.94437      .   S
    Zr1224 O2522     0.92444      .   S
    Zr549  O2522     0.92444      .   S
    Zr1238 O2523     0.96051      .   S
    Zr1239 O2523     0.96051      .   S
    Zr1238 O2524     0.94416      .   S
    Zr191  O2524     0.94416      .   S
    Zr1238 O2525     0.92426      .   S
    Zr449  O2525     0.92426      .   S
    Zr1239 O2526     0.96649      .   S
    Zr175  O2526     0.96649      .   S
    Zr1262 O2527     0.94416      .   S
    Zr1041 O2527     0.94416      .   S
    Zr1262 O2528     0.92426      .   S
    Zr799  O2528     0.92426      .   S
    Zr1245 O2529     0.96051      .   S
    Zr1244 O2529     0.96051      .   S
    Zr1245 O2530     0.96649      .   S
    Zr250  O2530     0.96649      .   S
    Zr1244 O2531     0.94435      .   S
    Zr266  O2531     0.94435      .   S
    Zr1244 O2532     0.92446      .   S
    Zr349  O2532     0.92446      .   S
    Zr1128 O2533     0.63699      .   S
    Zr1138 O2533     0.63699      .   S
    Zr928  O2534     0.63699      .   S
    Zr938  O2534     0.63699      .   S
    Zr253  O2535     0.63699      .   S
    Zr263  O2535     0.63699      .   S
    Zr1028 O2536     0.63699      .   S
    Zr1038 O2536     0.63699      .   S
    Zr3    O2537     0.63699      .   S
    Zr13   O2537     0.63699      .   S
    Zr178  O2538     0.63699      .   S
    Zr188  O2538     0.63699      .   S
    Zr1211 O2539     0.96217      .   S
    Zr1489 O2539     0.96217      .   S
    Zr1211 O2540     0.93534      .   S
    Zr285  O2540     0.93534      .   S
    Zr1211 O2541     0.93534      .   S
    Zr1110 O2541     0.93534      .   S
    Zr1206 O2542     0.93534      .   S
    Zr910  O2542     0.93534      .   S
    Zr1206 O2543     0.93534      .   S
    Zr160  O2543     0.93534      .   S
    Zr1201 O2544     0.96244      .   S
    Zr1489 O2544     0.96244      .   S
    Zr1201 O2545     0.93534      .   S
    Zr35   O2545     0.93534      .   S
    Zr1201 O2546     0.93534      .   S
    Zr1010 O2546     0.93534      .   S
    Zr408  O2547     0.63422      .   S
    Zr1480 O2547     0.63422      .   S
    Zr883  O2548     0.63422      .   S
    Zr1480 O2548     0.63422      .   S
    Zr758  O2549     0.63422      .   S
    Zr1484 O2549     0.63422      .   S
    Zr508  O2550     0.63422      .   S
    Zr1484 O2550     0.63422      .   S
    Zr633  O2551     0.63422      .   S
    Zr1476 O2551     0.63422      .   S
    Zr308  O2552     0.63422      .   S
    Zr1476 O2552     0.63422      .   S
    Zr189  O2553     0.94964      .   S
    Zr175  O2553     0.94964      .   S
    Zr264  O2554     0.94974      .   S
    Zr250  O2554     0.94974      .   S
    Zr1139 O2555     0.94974      .   S
    Zr1125 O2555     0.94974      .   S
    Zr14   O2556     0.94994      .   S
    Zr0    O2556     0.94994      .   S
    Zr1039 O2557     0.94964      .   S
    Zr1025 O2557     0.94964      .   S
    Zr939  O2558     0.94994      .   S
    Zr925  O2558     0.94994      .   S
    Zr1138 O2559     0.94705      .   S
    Zr1125 O2559     0.94705      .   S
    Zr13   O2560     0.94705      .   S
    Zr0    O2560     0.94705      .   S
    Zr938  O2561     0.94705      .   S
    Zr925  O2561     0.94705      .   S
    Zr263  O2562     0.94705      .   S
    Zr250  O2562     0.94705      .   S
    Zr188  O2563     0.94705      .   S
    Zr175  O2563     0.94705      .   S
    Zr1038 O2564     0.94705      .   S
    Zr1025 O2564     0.94705      .   S
    Zr266  O2565     0.63620      .   S
    Zr254  O2565     0.63620      .   S
    Zr16   O2566     0.63638      .   S
    Zr4    O2566     0.63638      .   S
    Zr941  O2567     0.63638      .   S
    Zr929  O2567     0.63638      .   S
    Zr1041 O2568     0.63638      .   S
    Zr1029 O2568     0.63638      .   S
    Zr1141 O2569     0.63620      .   S
    Zr1129 O2569     0.63620      .   S
    Zr191  O2570     0.63638      .   S
    Zr179  O2570     0.63638      .   S
    Zr449  O2571     0.63139      .   S
    Zr182  O2571     0.63139      .   S
    Zr874  O2572     0.63139      .   S
    Zr932  O2572     0.63139      .   S
    Zr799  O2573     0.63139      .   S
    Zr1032 O2573     0.63139      .   S
    Zr549  O2574     0.63139      .   S
    Zr7    O2574     0.63139      .   S
    Zr349  O2575     0.63139      .   S
    Zr257  O2575     0.63139      .   S
    Zr624  O2576     0.63139      .   S
    Zr1132 O2576     0.63139      .   S
    Zr1025 O2577     0.94636      .   S
    Zr1048 O2577     0.94636      .   S
    Zr1025 O2578     0.95084      .   S
    Zr1040 O2578     0.95084      .   S
    Zr925  O2579     0.94636      .   S
    Zr948  O2579     0.94636      .   S
    Zr925  O2580     0.95084      .   S
    Zr940  O2580     0.95084      .   S
    Zr0    O2581     0.94636      .   S
    Zr23   O2581     0.94636      .   S
    Zr0    O2582     0.95084      .   S
    Zr15   O2582     0.95084      .   S
    Zr250  O2583     0.94636      .   S
    Zr273  O2583     0.94636      .   S
    Zr250  O2584     0.95084      .   S
    Zr265  O2584     0.95084      .   S
    Zr175  O2585     0.94636      .   S
    Zr198  O2585     0.94636      .   S
    Zr175  O2586     0.95084      .   S
    Zr190  O2586     0.95084      .   S
    Zr1125 O2587     0.94636      .   S
    Zr1148 O2587     0.94636      .   S
    Zr1125 O2588     0.95084      .   S
    Zr1140 O2588     0.95084      .   S
    Zr910  O2589     0.63402      .   S
    Zr1328 O2589     0.63402      .   S
    Zr35   O2590     0.63402      .   S
    Zr1328 O2590     0.63402      .   S
    Zr1010 O2591     0.63424      .   S
    Zr1388 O2591     0.63424      .   S
    Zr285  O2592     0.63396      .   S
    Zr1388 O2592     0.63396      .   S
    Zr160  O2593     0.63424      .   S
    Zr1358 O2593     0.63424      .   S
    Zr1110 O2594     0.63396      .   S
    Zr1358 O2594     0.63396      .   S
    Zr932  O2595     0.63606      .   S
    Zr948  O2595     0.63606      .   S
    Zr7    O2596     0.63606      .   S
    Zr23   O2596     0.63606      .   S
    Zr257  O2597     0.63636      .   S
    Zr273  O2597     0.63636      .   S
    Zr1132 O2598     0.63636      .   S
    Zr1148 O2598     0.63636      .   S
    Zr1032 O2599     0.63612      .   S
    Zr1048 O2599     0.63612      .   S
    Zr182  O2600     0.63612      .   S
    Zr198  O2600     0.63612      .   S
    Zr254  O2601     0.63747      .   S
    Zr265  O2601     0.63747      .   S
    Zr929  O2602     0.63747      .   S
    Zr940  O2602     0.63747      .   S
    Zr179  O2603     0.63747      .   S
    Zr190  O2603     0.63747      .   S
    Zr4    O2604     0.63747      .   S
    Zr15   O2604     0.63747      .   S
    Zr1029 O2605     0.63747      .   S
    Zr1040 O2605     0.63747      .   S
    Zr1129 O2606     0.63747      .   S
    Zr1140 O2606     0.63747      .   S
    Zr1401 O2607     0.63589      .   S
    Zr344  O2607     0.63589      .   S
    Zr1401 O2608     0.63589      .   S
    Zr619  O2608     0.63589      .   S
    Zr1425 O2609     0.63562      .   S
    Zr869  O2609     0.63562      .   S
    Zr1425 O2610     0.63617      .   S
    Zr444  O2610     0.63617      .   S
    Zr1449 O2611     0.63562      .   S
    Zr544  O2611     0.63562      .   S
    Zr1449 O2612     0.63617      .   S
    Zr794  O2612     0.63617      .   S
    Zr869  O2613     0.94495      .   S
    Zr851  O2613     0.94495      .   S
    Zr444  O2614     0.94495      .   S
    Zr426  O2614     0.94495      .   S
    Zr344  O2615     0.94495      .   S
    Zr326  O2615     0.94495      .   S
    Zr544  O2616     0.94495      .   S
    Zr526  O2616     0.94495      .   S
    Zr619  O2617     0.94495      .   S
    Zr601  O2617     0.94495      .   S
    Zr794  O2618     0.94495      .   S
    Zr776  O2618     0.94495      .   S
    Zr1366 O2619     0.63651      .   S
    Zr195  O2619     0.63651      .   S
    Zr1366 O2620     0.63651      .   S
    Zr1145 O2620     0.63651      .   S
    Zr1324 O2621     0.63651      .   S
    Zr945  O2621     0.63651      .   S
    Zr1324 O2622     0.63651      .   S
    Zr20   O2622     0.63651      .   S
    Zr1384 O2623     0.63651      .   S
    Zr270  O2623     0.63651      .   S
    Zr1384 O2624     0.63651      .   S
    Zr1045 O2624     0.63651      .   S
    Zr195  O2625     0.94522      .   S
    Zr1303 O2625     0.94522      .   S
    Zr270  O2626     0.94522      .   S
    Zr1306 O2626     0.94522      .   S
    Zr1145 O2627     0.94522      .   S
    Zr1302 O2627     0.94522      .   S
    Zr945  O2628     0.94522      .   S
    Zr1297 O2628     0.94522      .   S
    Zr20   O2629     0.94522      .   S
    Zr1296 O2629     0.94522      .   S
    Zr1045 O2630     0.94522      .   S
    Zr1307 O2630     0.94522      .   S
    Zr447  O2631     0.93592      .   S
    Zr426  O2631     0.93592      .   S
    Zr447  O2632     0.63519      .   S
    Zr856  O2632     0.63519      .   S
    Zr622  O2633     0.93653      .   S
    Zr601  O2633     0.93653      .   S
    Zr622  O2634     0.63497      .   S
    Zr331  O2634     0.63497      .   S
    Zr797  O2635     0.93592      .   S
    Zr776  O2635     0.93592      .   S
    Zr797  O2636     0.63519      .   S
    Zr531  O2636     0.63519      .   S
    Zr347  O2637     0.93653      .   S
    Zr326  O2637     0.93653      .   S
    Zr347  O2638     0.63497      .   S
    Zr606  O2638     0.63497      .   S
    Zr547  O2639     0.93616      .   S
    Zr526  O2639     0.93616      .   S
    Zr547  O2640     0.63525      .   S
    Zr781  O2640     0.63525      .   S
    Zr872  O2641     0.93616      .   S
    Zr851  O2641     0.93616      .   S
    Zr872  O2642     0.63525      .   S
    Zr431  O2642     0.63525      .   S
    Zr851  O2643     0.93594      .   S
    Zr859  O2643     0.93594      .   S
    Zr851  O2644     0.96249      .   S
    Zr1427 O2644     0.96249      .   S
    Zr851  O2645     0.94364      .   S
    Zr861  O2645     0.94364      .   S
    Zr776  O2646     0.93603      .   S
    Zr784  O2646     0.93603      .   S
    Zr776  O2647     0.96303      .   S
    Zr1451 O2647     0.96303      .   S
    Zr776  O2648     0.94352      .   S
    Zr786  O2648     0.94352      .   S
    Zr526  O2649     0.93594      .   S
    Zr534  O2649     0.93594      .   S
    Zr526  O2650     0.96249      .   S
    Zr1451 O2650     0.96249      .   S
    Zr526  O2651     0.94364      .   S
    Zr536  O2651     0.94364      .   S
    Zr426  O2652     0.93603      .   S
    Zr434  O2652     0.93603      .   S
    Zr426  O2653     0.96303      .   S
    Zr1427 O2653     0.96303      .   S
    Zr426  O2654     0.94352      .   S
    Zr436  O2654     0.94352      .   S
    Zr601  O2655     0.93573      .   S
    Zr609  O2655     0.93573      .   S
    Zr601  O2656     0.96297      .   S
    Zr1403 O2656     0.96297      .   S
    Zr601  O2657     0.94357      .   S
    Zr611  O2657     0.94357      .   S
    Zr326  O2658     0.93573      .   S
    Zr334  O2658     0.93573      .   S
    Zr326  O2659     0.96297      .   S
    Zr1403 O2659     0.96297      .   S
    Zr326  O2660     0.94357      .   S
    Zr336  O2660     0.94357      .   S
    Zr331  O2661     0.63319      .   S
    Zr346  O2661     0.63319      .   S
    Zr531  O2662     0.63314      .   S
    Zr546  O2662     0.63314      .   S
    Zr431  O2663     0.63336      .   S
    Zr446  O2663     0.63336      .   S
    Zr606  O2664     0.63319      .   S
    Zr621  O2664     0.63319      .   S
    Zr856  O2665     0.63314      .   S
    Zr871  O2665     0.63314      .   S
    Zr781  O2666     0.63336      .   S
    Zr796  O2666     0.63336      .   S
    Zr609  O2667     0.63450      .   S
    Zr1399 O2667     0.63450      .   S
    Zr334  O2668     0.63450      .   S
    Zr1399 O2668     0.63450      .   S
    Zr859  O2669     0.63450      .   S
    Zr1423 O2669     0.63450      .   S
    Zr784  O2670     0.63450      .   S
    Zr1447 O2670     0.63450      .   S
    Zr434  O2671     0.63450      .   S
    Zr1423 O2671     0.63450      .   S
    Zr534  O2672     0.63450      .   S
    Zr1447 O2672     0.63450      .   S
    Zr943  O2673     0.63614      .   S
    Zr930  O2673     0.63614      .   S
    Zr943  O2674     0.94483      .   S
    Zr1297 O2674     0.94483      .   S
    Zr193  O2675     0.63637      .   S
    Zr180  O2675     0.63637      .   S
    Zr193  O2676     0.94453      .   S
    Zr1303 O2676     0.94453      .   S
    Zr18   O2677     0.63614      .   S
    Zr5    O2677     0.63614      .   S
    Zr18   O2678     0.94483      .   S
    Zr1296 O2678     0.94483      .   S
    Zr1043 O2679     0.63637      .   S
    Zr1030 O2679     0.63637      .   S
    Zr1043 O2680     0.94453      .   S
    Zr1307 O2680     0.94453      .   S
    Zr1143 O2681     0.63643      .   S
    Zr1130 O2681     0.63643      .   S
    Zr1143 O2682     0.94466      .   S
    Zr1302 O2682     0.94466      .   S
    Zr268  O2683     0.63643      .   S
    Zr255  O2683     0.63643      .   S
    Zr268  O2684     0.94466      .   S
    Zr1306 O2684     0.94466      .   S
    Zr1130 O2685     0.63735      .   S
    Zr1142 O2685     0.63735      .   S
    Zr180  O2686     0.63735      .   S
    Zr192  O2686     0.63735      .   S
    Zr5    O2687     0.63735      .   S
    Zr17   O2687     0.63735      .   S
    Zr1030 O2688     0.63735      .   S
    Zr1042 O2688     0.63735      .   S
    Zr255  O2689     0.63735      .   S
    Zr267  O2689     0.63735      .   S
    Zr930  O2690     0.63735      .   S
    Zr942  O2690     0.63735      .   S
    Zr1306 O2691     0.94522      .   S
    Zr1020 O2691     0.94522      .   S
    Zr1306 O2692     0.96312      .   S
    Zr1283 O2692     0.96312      .   S
    Zr1306 O2693     0.94466      .   S
    Zr1018 O2693     0.94466      .   S
    Zr1297 O2694     0.94522      .   S
    Zr45   O2694     0.94522      .   S
    Zr1297 O2695     0.96312      .   S
    Zr1273 O2695     0.96312      .   S
    Zr1297 O2696     0.94461      .   S
    Zr43   O2696     0.94461      .   S
    Zr1307 O2697     0.94522      .   S
    Zr295  O2697     0.94522      .   S
    Zr1307 O2698     0.96312      .   S
    Zr1283 O2698     0.96312      .   S
    Zr1307 O2699     0.94453      .   S
    Zr293  O2699     0.94453      .   S
    Zr1302 O2700     0.94522      .   S
    Zr170  O2700     0.94522      .   S
    Zr1302 O2701     0.96312      .   S
    Zr1279 O2701     0.96312      .   S
    Zr1302 O2702     0.94466      .   S
    Zr168  O2702     0.94466      .   S
    Zr1296 O2703     0.94522      .   S
    Zr920  O2703     0.94522      .   S
    Zr1296 O2704     0.96312      .   S
    Zr1273 O2704     0.96312      .   S
    Zr1296 O2705     0.94461      .   S
    Zr918  O2705     0.94461      .   S
    Zr1303 O2706     0.94522      .   S
    Zr1120 O2706     0.94522      .   S
    Zr1303 O2707     0.96312      .   S
    Zr1279 O2707     0.96312      .   S
    Zr1303 O2708     0.94453      .   S
    Zr1118 O2708     0.94453      .   S
    Zr1477 O2709     0.63422      .   S
    Zr333  O2709     0.63422      .   S
    Zr1477 O2710     0.63422      .   S
    Zr608  O2710     0.63422      .   S
    Zr1481 O2711     0.63422      .   S
    Zr433  O2711     0.63422      .   S
    Zr1481 O2712     0.63422      .   S
    Zr858  O2712     0.63422      .   S
    Zr1485 O2713     0.63422      .   S
    Zr533  O2713     0.63422      .   S
    Zr1485 O2714     0.63422      .   S
    Zr783  O2714     0.63422      .   S
    Zr346  O2715     0.93494      .   S
    Zr1398 O2715     0.93494      .   S
    Zr796  O2716     0.93501      .   S
    Zr1446 O2716     0.93501      .   S
    Zr546  O2717     0.93544      .   S
    Zr1446 O2717     0.93544      .   S
    Zr621  O2718     0.93494      .   S
    Zr1398 O2718     0.93494      .   S
    Zr871  O2719     0.93544      .   S
    Zr1422 O2719     0.93544      .   S
    Zr446  O2720     0.93501      .   S
    Zr1422 O2720     0.93501      .   S
    Zr45   O2721     0.63651      .   S
    Zr1330 O2721     0.63651      .   S
    Zr920  O2722     0.63651      .   S
    Zr1330 O2722     0.63651      .   S
    Zr1120 O2723     0.63651      .   S
    Zr1360 O2723     0.63651      .   S
    Zr1020 O2724     0.63651      .   S
    Zr1390 O2724     0.63651      .   S
    Zr295  O2725     0.63651      .   S
    Zr1390 O2725     0.63651      .   S
    Zr170  O2726     0.63651      .   S
    Zr1360 O2726     0.63651      .   S
    Zr533  O2727     0.93478      .   S
    Zr1221 O2727     0.93478      .   S
    Zr783  O2728     0.93478      .   S
    Zr1214 O2728     0.93478      .   S
    Zr433  O2729     0.93478      .   S
    Zr1217 O2729     0.93478      .   S
    Zr333  O2730     0.93478      .   S
    Zr1213 O2730     0.93478      .   S
    Zr858  O2731     0.93478      .   S
    Zr1222 O2731     0.93478      .   S
    Zr608  O2732     0.93478      .   S
    Zr1218 O2732     0.93478      .   S
    Zr17   O2733     0.94911      .   S
    Zr1272 O2733     0.94911      .   S
    Zr1142 O2734     0.94911      .   S
    Zr1278 O2734     0.94911      .   S
    Zr942  O2735     0.94911      .   S
    Zr1272 O2735     0.94911      .   S
    Zr192  O2736     0.94911      .   S
    Zr1278 O2736     0.94911      .   S
    Zr1042 O2737     0.94911      .   S
    Zr1282 O2737     0.94911      .   S
    Zr267  O2738     0.94911      .   S
    Zr1282 O2738     0.94911      .   S
    Zr536  O2739     0.63536      .   S
    Zr527  O2739     0.63536      .   S
    Zr611  O2740     0.63551      .   S
    Zr602  O2740     0.63551      .   S
    Zr861  O2741     0.63536      .   S
    Zr852  O2741     0.63536      .   S
    Zr436  O2742     0.63542      .   S
    Zr427  O2742     0.63542      .   S
    Zr336  O2743     0.63551      .   S
    Zr327  O2743     0.63551      .   S
    Zr786  O2744     0.63542      .   S
    Zr777  O2744     0.63542      .   S
    Zr1446 O2745     0.93603      .   S
    Zr537  O2745     0.93603      .   S
    Zr1446 O2746     0.93581      .   S
    Zr787  O2746     0.93581      .   S
    Zr1422 O2747     0.93603      .   S
    Zr862  O2747     0.93603      .   S
    Zr1422 O2748     0.93581      .   S
    Zr437  O2748     0.93581      .   S
    Zr1398 O2749     0.93604      .   S
    Zr612  O2749     0.93604      .   S
    Zr1398 O2750     0.93604      .   S
    Zr337  O2750     0.93604      .   S
    Zr1424 O2751     0.63424      .   S
    Zr860  O2751     0.63424      .   S
    Zr1424 O2752     0.63396      .   S
    Zr435  O2752     0.63396      .   S
    Zr1448 O2753     0.63396      .   S
    Zr785  O2753     0.63396      .   S
    Zr1448 O2754     0.63424      .   S
    Zr535  O2754     0.63424      .   S
    Zr1400 O2755     0.63398      .   S
    Zr610  O2755     0.63398      .   S
    Zr1400 O2756     0.63398      .   S
    Zr335  O2756     0.63398      .   S
    Zr1387 O2757     0.63450      .   S
    Zr284  O2757     0.63450      .   S
    Zr1387 O2758     0.63450      .   S
    Zr1009 O2758     0.63450      .   S
    Zr1327 O2759     0.63450      .   S
    Zr909  O2759     0.63450      .   S
    Zr1327 O2760     0.63450      .   S
    Zr34   O2760     0.63450      .   S
    Zr1357 O2761     0.63450      .   S
    Zr1109 O2761     0.63450      .   S
    Zr1357 O2762     0.63450      .   S
    Zr159  O2762     0.63450      .   S
    Zr860  O2763     0.93534      .   S
    Zr1222 O2763     0.93534      .   S
    Zr785  O2764     0.93534      .   S
    Zr1214 O2764     0.93534      .   S
    Zr610  O2765     0.93534      .   S
    Zr1218 O2765     0.93534      .   S
    Zr435  O2766     0.93534      .   S
    Zr1217 O2766     0.93534      .   S
    Zr335  O2767     0.93534      .   S
    Zr1213 O2767     0.93534      .   S
    Zr535  O2768     0.93534      .   S
    Zr1221 O2768     0.93534      .   S
    Zr1278 O2769     0.94911      .   S
    Zr167  O2769     0.94911      .   S
    Zr1278 O2770     0.94911      .   S
    Zr1117 O2770     0.94911      .   S
    Zr1282 O2771     0.94911      .   S
    Zr292  O2771     0.94911      .   S
    Zr1282 O2772     0.94911      .   S
    Zr1017 O2772     0.94911      .   S
    Zr1272 O2773     0.94911      .   S
    Zr917  O2773     0.94911      .   S
    Zr1272 O2774     0.94911      .   S
    Zr42   O2774     0.94911      .   S
    Zr293  O2775     0.63637      .   S
    Zr280  O2775     0.63637      .   S
    Zr168  O2776     0.63643      .   S
    Zr155  O2776     0.63643      .   S
    Zr1018 O2777     0.63643      .   S
    Zr1005 O2777     0.63643      .   S
    Zr1118 O2778     0.63637      .   S
    Zr1105 O2778     0.63637      .   S
    Zr918  O2779     0.63626      .   S
    Zr905  O2779     0.63626      .   S
    Zr43   O2780     0.63626      .   S
    Zr30   O2780     0.63626      .   S
    Zr909  O2781     0.93586      .   S
    Zr901  O2781     0.93586      .   S
    Zr34   O2782     0.93586      .   S
    Zr26   O2782     0.93586      .   S
    Zr284  O2783     0.93603      .   S
    Zr276  O2783     0.93603      .   S
    Zr1009 O2784     0.93594      .   S
    Zr1001 O2784     0.93594      .   S
    Zr1109 O2785     0.93603      .   S
    Zr1101 O2785     0.93603      .   S
    Zr159  O2786     0.93594      .   S
    Zr151  O2786     0.93594      .   S
    Zr777  O2787     0.63396      .   S
    Zr537  O2787     0.63396      .   S
    Zr427  O2788     0.63396      .   S
    Zr862  O2788     0.63396      .   S
    Zr852  O2789     0.63418      .   S
    Zr437  O2789     0.63418      .   S
    Zr327  O2790     0.63388      .   S
    Zr612  O2790     0.63388      .   S
    Zr602  O2791     0.63388      .   S
    Zr337  O2791     0.63388      .   S
    Zr527  O2792     0.63418      .   S
    Zr787  O2792     0.63418      .   S
    Zr1222 O2793     0.93478      .   S
    Zr558  O2793     0.93478      .   S
    Zr1222 O2794     0.93534      .   S
    Zr560  O2794     0.93534      .   S
    Zr1213 O2795     0.93478      .   S
    Zr708  O2795     0.93478      .   S
    Zr1213 O2796     0.96235      .   S
    Zr1493 O2796     0.96235      .   S
    Zr1213 O2797     0.93534      .   S
    Zr710  O2797     0.93534      .   S
    Zr1214 O2798     0.93478      .   S
    Zr358  O2798     0.93478      .   S
    Zr1214 O2799     0.96217      .   S
    Zr1494 O2799     0.96217      .   S
    Zr1214 O2800     0.93534      .   S
    Zr360  O2800     0.93534      .   S
    Zr1217 O2801     0.93478      .   S
    Zr683  O2801     0.93478      .   S
    Zr1217 O2802     0.96217      .   S
    Zr1495 O2802     0.96217      .   S
    Zr1217 O2803     0.93534      .   S
    Zr685  O2803     0.93534      .   S
    Zr1218 O2804     0.93478      .   S
    Zr458  O2804     0.93478      .   S
    Zr1218 O2805     0.93534      .   S
    Zr460  O2805     0.93534      .   S
    Zr1221 O2806     0.93478      .   S
    Zr833  O2806     0.93478      .   S
    Zr1221 O2807     0.96244      .   S
    Zr1494 O2807     0.96244      .   S
    Zr1221 O2808     0.93534      .   S
    Zr835  O2808     0.93534      .   S
    Zr1389 O2809     0.63617      .   S
    Zr294  O2809     0.63617      .   S
    Zr1389 O2810     0.63562      .   S
    Zr1019 O2810     0.63562      .   S
    Zr1359 O2811     0.63617      .   S
    Zr1119 O2811     0.63617      .   S
    Zr1359 O2812     0.63562      .   S
    Zr169  O2812     0.63562      .   S
    Zr1329 O2813     0.63614      .   S
    Zr44   O2813     0.63614      .   S
    Zr1329 O2814     0.63614      .   S
    Zr919  O2814     0.63614      .   S
    Zr833  O2815     0.63422      .   S
    Zr1483 O2815     0.63422      .   S
    Zr558  O2816     0.63422      .   S
    Zr1486 O2816     0.63422      .   S
    Zr458  O2817     0.63422      .   S
    Zr1482 O2817     0.63422      .   S
    Zr683  O2818     0.63422      .   S
    Zr1479 O2818     0.63422      .   S
    Zr708  O2819     0.63422      .   S
    Zr1487 O2819     0.63422      .   S
    Zr358  O2820     0.63422      .   S
    Zr1478 O2820     0.63422      .   S
    Zr294  O2821     0.94495      .   S
    Zr276  O2821     0.94495      .   S
    Zr1119 O2822     0.94495      .   S
    Zr1101 O2822     0.94495      .   S
    Zr1019 O2823     0.94495      .   S
    Zr1001 O2823     0.94495      .   S
    Zr169  O2824     0.94495      .   S
    Zr151  O2824     0.94495      .   S
    Zr44   O2825     0.94495      .   S
    Zr26   O2825     0.94495      .   S
    Zr919  O2826     0.94495      .   S
    Zr901  O2826     0.94495      .   S
    Zr1005 O2827     0.63735      .   S
    Zr1017 O2827     0.63735      .   S
    Zr30   O2828     0.63735      .   S
    Zr42   O2828     0.63735      .   S
    Zr155  O2829     0.63735      .   S
    Zr167  O2829     0.63735      .   S
    Zr905  O2830     0.63735      .   S
    Zr917  O2830     0.63735      .   S
    Zr1105 O2831     0.63735      .   S
    Zr1117 O2831     0.63735      .   S
    Zr280  O2832     0.63735      .   S
    Zr292  O2832     0.63735      .   S
    Zr1495 O2833     0.96244      .   S
    Zr1215 O2833     0.96244      .   S
    Zr1493 O2834     0.96235      .   S
    Zr1223 O2834     0.96235      .   S
    Zr276  O2835     0.94352      .   S
    Zr286  O2835     0.94352      .   S
    Zr276  O2836     0.96303      .   S
    Zr1391 O2836     0.96303      .   S
    Zr276  O2837     0.93592      .   S
    Zr297  O2837     0.93592      .   S
    Zr901  O2838     0.94334      .   S
    Zr911  O2838     0.94334      .   S
    Zr901  O2839     0.96266      .   S
    Zr1331 O2839     0.96266      .   S
    Zr901  O2840     0.93629      .   S
    Zr922  O2840     0.93629      .   S
    Zr1001 O2841     0.94364      .   S
    Zr1011 O2841     0.94364      .   S
    Zr1001 O2842     0.96249      .   S
    Zr1391 O2842     0.96249      .   S
    Zr1001 O2843     0.93616      .   S
    Zr1022 O2843     0.93616      .   S
    Zr1101 O2844     0.94352      .   S
    Zr1111 O2844     0.94352      .   S
    Zr1101 O2845     0.96303      .   S
    Zr1361 O2845     0.96303      .   S
    Zr1101 O2846     0.93592      .   S
    Zr1122 O2846     0.93592      .   S
    Zr151  O2847     0.94364      .   S
    Zr161  O2847     0.94364      .   S
    Zr151  O2848     0.96249      .   S
    Zr1361 O2848     0.96249      .   S
    Zr151  O2849     0.93616      .   S
    Zr172  O2849     0.93616      .   S
    Zr26   O2850     0.94334      .   S
    Zr36   O2850     0.94334      .   S
    Zr26   O2851     0.96266      .   S
    Zr1331 O2851     0.96266      .   S
    Zr26   O2852     0.93629      .   S
    Zr47   O2852     0.93629      .   S
    Zr685  O2853     0.63396      .   S
    Zr1412 O2853     0.63396      .   S
    Zr710  O2854     0.63398      .   S
    Zr1460 O2854     0.63398      .   S
    Zr460  O2855     0.63398      .   S
    Zr1430 O2855     0.63398      .   S
    Zr835  O2856     0.63402      .   S
    Zr1436 O2856     0.63402      .   S
    Zr560  O2857     0.63402      .   S
    Zr1454 O2857     0.63402      .   S
    Zr360  O2858     0.63396      .   S
    Zr1406 O2858     0.63396      .   S
    Zr1483 O2859     0.63422      .   S
    Zr483  O2859     0.63422      .   S
    Zr1478 O2860     0.63422      .   S
    Zr658  O2860     0.63422      .   S
    Zr1482 O2861     0.63422      .   S
    Zr808  O2861     0.63422      .   S
    Zr1486 O2862     0.63422      .   S
    Zr733  O2862     0.63422      .   S
    Zr1479 O2863     0.63422      .   S
    Zr383  O2863     0.63422      .   S
    Zr1487 O2864     0.63422      .   S
    Zr583  O2864     0.63422      .   S
    Zr286  O2865     0.63542      .   S
    Zr277  O2865     0.63542      .   S
    Zr1111 O2866     0.63542      .   S
    Zr1102 O2866     0.63542      .   S
    Zr36   O2867     0.63520      .   S
    Zr27   O2867     0.63520      .   S
    Zr911  O2868     0.63520      .   S
    Zr902  O2868     0.63520      .   S
    Zr1011 O2869     0.63536      .   S
    Zr1002 O2869     0.63536      .   S
    Zr161  O2870     0.63536      .   S
    Zr152  O2870     0.63536      .   S
    Zr483  O2871     0.93478      .   S
    Zr1219 O2871     0.93478      .   S
    Zr733  O2872     0.93478      .   S
    Zr1215 O2872     0.93478      .   S
    Zr808  O2873     0.93478      .   S
    Zr1223 O2873     0.93478      .   S
    Zr658  O2874     0.93478      .   S
    Zr1219 O2874     0.93478      .   S
    Zr383  O2875     0.93478      .   S
    Zr1215 O2875     0.93478      .   S
    Zr583  O2876     0.93478      .   S
    Zr1223 O2876     0.93478      .   S
    Zr1002 O2877     0.63418      .   S
    Zr287  O2877     0.63418      .   S
    Zr902  O2878     0.63404      .   S
    Zr37   O2878     0.63404      .   S
    Zr277  O2879     0.63396      .   S
    Zr1012 O2879     0.63396      .   S
    Zr152  O2880     0.63418      .   S
    Zr1112 O2880     0.63418      .   S
    Zr27   O2881     0.63404      .   S
    Zr912  O2881     0.63404      .   S
    Zr1102 O2882     0.63396      .   S
    Zr162  O2882     0.63396      .   S
    Zr1406 O2883     0.63424      .   S
    Zr660  O2883     0.63424      .   S
    Zr1436 O2884     0.63402      .   S
    Zr485  O2884     0.63402      .   S
    Zr1430 O2885     0.63398      .   S
    Zr810  O2885     0.63398      .   S
    Zr1412 O2886     0.63424      .   S
    Zr385  O2886     0.63424      .   S
    Zr1454 O2887     0.63402      .   S
    Zr735  O2887     0.63402      .   S
    Zr1460 O2888     0.63398      .   S
    Zr585  O2888     0.63398      .   S
    Zr1219 O2889     0.93534      .   S
    Zr660  O2889     0.93534      .   S
    Zr1219 O2890     0.93534      .   S
    Zr485  O2890     0.93534      .   S
    Zr1223 O2891     0.93534      .   S
    Zr585  O2891     0.93534      .   S
    Zr1223 O2892     0.93534      .   S
    Zr810  O2892     0.93534      .   S
    Zr1215 O2893     0.93534      .   S
    Zr735  O2893     0.93534      .   S
    Zr1215 O2894     0.93534      .   S
    Zr385  O2894     0.93534      .   S
    Zr47   O2895     0.63522      .   S
    Zr906  O2895     0.63522      .   S
    Zr172  O2896     0.63525      .   S
    Zr1106 O2896     0.63525      .   S
    Zr922  O2897     0.63522      .   S
    Zr31   O2897     0.63522      .   S
    Zr297  O2898     0.63519      .   S
    Zr1006 O2898     0.63519      .   S
    Zr1122 O2899     0.63519      .   S
    Zr156  O2899     0.63519      .   S
    Zr1022 O2900     0.63525      .   S
    Zr281  O2900     0.63525      .   S
    Zr912  O2901     0.93611      .   S
    Zr1326 O2901     0.93611      .   S
    Zr37   O2902     0.93611      .   S
    Zr1326 O2902     0.93611      .   S
    Zr1012 O2903     0.93603      .   S
    Zr1386 O2903     0.93603      .   S
    Zr162  O2904     0.93603      .   S
    Zr1356 O2904     0.93603      .   S
    Zr1112 O2905     0.93581      .   S
    Zr1356 O2905     0.93581      .   S
    Zr287  O2906     0.93581      .   S
    Zr1386 O2906     0.93581      .   S
    Zr1326 O2907     0.93487      .   S
    Zr921  O2907     0.93487      .   S
    Zr1326 O2908     0.93487      .   S
    Zr46   O2908     0.93487      .   S
    Zr1386 O2909     0.93501      .   S
    Zr296  O2909     0.93501      .   S
    Zr1386 O2910     0.93544      .   S
    Zr1021 O2910     0.93544      .   S
    Zr1356 O2911     0.93544      .   S
    Zr171  O2911     0.93544      .   S
    Zr1356 O2912     0.93501      .   S
    Zr1121 O2912     0.93501      .   S
    Zr156  O2913     0.63314      .   S
    Zr171  O2913     0.63314      .   S
    Zr906  O2914     0.63341      .   S
    Zr921  O2914     0.63341      .   S
    Zr1006 O2915     0.63314      .   S
    Zr1021 O2915     0.63314      .   S
    Zr281  O2916     0.63336      .   S
    Zr296  O2916     0.63336      .   S
    Zr31   O2917     0.63341      .   S
    Zr46   O2917     0.63341      .   S
    Zr1106 O2918     0.63336      .   S
    Zr1121 O2918     0.63336      .   S
    Zr361  O2919     0.63542      .   S
    Zr352  O2919     0.63542      .   S
    Zr361  O2920     0.94352      .   S
    Zr351  O2920     0.94352      .   S
    Zr686  O2921     0.63542      .   S
    Zr677  O2921     0.63542      .   S
    Zr686  O2922     0.94352      .   S
    Zr676  O2922     0.94352      .   S
    Zr711  O2923     0.63551      .   S
    Zr702  O2923     0.63551      .   S
    Zr711  O2924     0.94357      .   S
    Zr701  O2924     0.94357      .   S
    Zr836  O2925     0.63520      .   S
    Zr827  O2925     0.63520      .   S
    Zr836  O2926     0.94334      .   S
    Zr826  O2926     0.94334      .   S
    Zr461  O2927     0.63551      .   S
    Zr452  O2927     0.63551      .   S
    Zr461  O2928     0.94357      .   S
    Zr451  O2928     0.94357      .   S
    Zr561  O2929     0.63520      .   S
    Zr552  O2929     0.63520      .   S
    Zr561  O2930     0.94334      .   S
    Zr551  O2930     0.94334      .   S
    Zr827  O2931     0.63404      .   S
    Zr487  O2931     0.63404      .   S
    Zr702  O2932     0.63388      .   S
    Zr587  O2932     0.63388      .   S
    Zr452  O2933     0.63388      .   S
    Zr812  O2933     0.63388      .   S
    Zr677  O2934     0.63396      .   S
    Zr387  O2934     0.63396      .   S
    Zr352  O2935     0.63396      .   S
    Zr662  O2935     0.63396      .   S
    Zr552  O2936     0.63404      .   S
    Zr737  O2936     0.63404      .   S
    Zr559  O2937     0.93586      .   S
    Zr551  O2937     0.93586      .   S
    Zr559  O2938     0.63450      .   S
    Zr1453 O2938     0.63450      .   S
    Zr359  O2939     0.93603      .   S
    Zr351  O2939     0.93603      .   S
    Zr359  O2940     0.63450      .   S
    Zr1405 O2940     0.63450      .   S
    Zr684  O2941     0.93603      .   S
    Zr676  O2941     0.93603      .   S
    Zr684  O2942     0.63450      .   S
    Zr1411 O2942     0.63450      .   S
    Zr709  O2943     0.93573      .   S
    Zr701  O2943     0.93573      .   S
    Zr709  O2944     0.63450      .   S
    Zr1459 O2944     0.63450      .   S
    Zr459  O2945     0.93573      .   S
    Zr451  O2945     0.93573      .   S
    Zr459  O2946     0.63450      .   S
    Zr1429 O2946     0.63450      .   S
    Zr834  O2947     0.93586      .   S
    Zr826  O2947     0.93586      .   S
    Zr834  O2948     0.63450      .   S
    Zr1435 O2948     0.63450      .   S
    Zr916  O2949     0.63651      .   S
    Zr904  O2949     0.63651      .   S
    Zr916  O2950     0.94412      .   S
    Zr1266 O2950     0.94412      .   S
    Zr41   O2951     0.63651      .   S
    Zr29   O2951     0.63651      .   S
    Zr41   O2952     0.94412      .   S
    Zr1226 O2952     0.94412      .   S
    Zr1016 O2953     0.63620      .   S
    Zr1004 O2953     0.63620      .   S
    Zr1016 O2954     0.94435      .   S
    Zr1256 O2954     0.94435      .   S
    Zr166  O2955     0.63620      .   S
    Zr154  O2955     0.63620      .   S
    Zr166  O2956     0.94435      .   S
    Zr1236 O2956     0.94435      .   S
    Zr291  O2957     0.63638      .   S
    Zr279  O2957     0.63638      .   S
    Zr291  O2958     0.94416      .   S
    Zr1246 O2958     0.94416      .   S
    Zr1116 O2959     0.63638      .   S
    Zr1104 O2959     0.63638      .   S
    Zr1116 O2960     0.94416      .   S
    Zr1254 O2960     0.94416      .   S
    Zr154  O2961     0.63747      .   S
    Zr165  O2961     0.63747      .   S
    Zr279  O2962     0.63747      .   S
    Zr290  O2962     0.63747      .   S
    Zr1004 O2963     0.63747      .   S
    Zr1015 O2963     0.63747      .   S
    Zr904  O2964     0.63747      .   S
    Zr915  O2964     0.63747      .   S
    Zr29   O2965     0.63747      .   S
    Zr40   O2965     0.63747      .   S
    Zr1104 O2966     0.63747      .   S
    Zr1115 O2966     0.63747      .   S
    Zr587  O2967     0.93604      .   S
    Zr1458 O2967     0.93604      .   S
    Zr737  O2968     0.93611      .   S
    Zr1452 O2968     0.93611      .   S
    Zr812  O2969     0.93604      .   S
    Zr1428 O2969     0.93604      .   S
    Zr662  O2970     0.93603      .   S
    Zr1404 O2970     0.93603      .   S
    Zr387  O2971     0.93603      .   S
    Zr1410 O2971     0.93603      .   S
    Zr487  O2972     0.93611      .   S
    Zr1434 O2972     0.93611      .   S
    Zr451  O2973     0.93653      .   S
    Zr472  O2973     0.93653      .   S
    Zr451  O2974     0.94495      .   S
    Zr469  O2974     0.94495      .   S
    Zr451  O2975     0.96297      .   S
    Zr1433 O2975     0.96297      .   S
    Zr701  O2976     0.93653      .   S
    Zr722  O2976     0.93653      .   S
    Zr701  O2977     0.94495      .   S
    Zr719  O2977     0.94495      .   S
    Zr701  O2978     0.96297      .   S
    Zr1463 O2978     0.96297      .   S
    Zr676  O2979     0.93592      .   S
    Zr697  O2979     0.93592      .   S
    Zr676  O2980     0.94495      .   S
    Zr694  O2980     0.94495      .   S
    Zr676  O2981     0.96303      .   S
    Zr1415 O2981     0.96303      .   S
    Zr551  O2982     0.93629      .   S
    Zr572  O2982     0.93629      .   S
    Zr551  O2983     0.94495      .   S
    Zr569  O2983     0.94495      .   S
    Zr551  O2984     0.96266      .   S
    Zr1457 O2984     0.96266      .   S
    Zr351  O2985     0.93592      .   S
    Zr372  O2985     0.93592      .   S
    Zr351  O2986     0.94495      .   S
    Zr369  O2986     0.94495      .   S
    Zr351  O2987     0.96303      .   S
    Zr1409 O2987     0.96303      .   S
    Zr826  O2988     0.93629      .   S
    Zr847  O2988     0.93629      .   S
    Zr826  O2989     0.94495      .   S
    Zr844  O2989     0.94495      .   S
    Zr826  O2990     0.96266      .   S
    Zr1439 O2990     0.96266      .   S
    Zr1411 O2991     0.63450      .   S
    Zr384  O2991     0.63450      .   S
    Zr1429 O2992     0.63450      .   S
    Zr809  O2992     0.63450      .   S
    Zr1405 O2993     0.63450      .   S
    Zr659  O2993     0.63450      .   S
    Zr1435 O2994     0.63450      .   S
    Zr484  O2994     0.63450      .   S
    Zr1453 O2995     0.63450      .   S
    Zr734  O2995     0.63450      .   S
    Zr1459 O2996     0.63450      .   S
    Zr584  O2996     0.63450      .   S
    Zr372  O2997     0.63519      .   S
    Zr656  O2997     0.63519      .   S
    Zr572  O2998     0.63522      .   S
    Zr731  O2998     0.63522      .   S
    Zr472  O2999     0.63497      .   S
    Zr806  O2999     0.63497      .   S
    Zr697  O3000     0.63519      .   S
    Zr381  O3000     0.63519      .   S
    Zr847  O3001     0.63522      .   S
    Zr481  O3001     0.63522      .   S
    Zr722  O3002     0.63497      .   S
    Zr581  O3002     0.63497      .   S
    Zr1124 O3003     0.92426      .   S
    Zr1254 O3003     0.92426      .   S
    Zr1124 O3004     0.63139      .   S
    Zr682  O3004     0.63139      .   S
    Zr1024 O3005     0.92444      .   S
    Zr1256 O3005     0.92444      .   S
    Zr1024 O3006     0.63139      .   S
    Zr707  O3006     0.63139      .   S
    Zr924  O3007     0.92457      .   S
    Zr1266 O3007     0.92457      .   S
    Zr924  O3008     0.63139      .   S
    Zr832  O3008     0.63139      .   S
    Zr49   O3009     0.92457      .   S
    Zr1226 O3009     0.92457      .   S
    Zr49   O3010     0.63139      .   S
    Zr557  O3010     0.63139      .   S
    Zr299  O3011     0.92426      .   S
    Zr1246 O3011     0.92426      .   S
    Zr299  O3012     0.63139      .   S
    Zr357  O3012     0.63139      .   S
    Zr174  O3013     0.92444      .   S
    Zr1236 O3013     0.92444      .   S
    Zr174  O3014     0.63139      .   S
    Zr457  O3014     0.63139      .   S
    Zr581  O3015     0.63319      .   S
    Zr596  O3015     0.63319      .   S
    Zr381  O3016     0.63314      .   S
    Zr396  O3016     0.63314      .   S
    Zr806  O3017     0.63319      .   S
    Zr821  O3017     0.63319      .   S
    Zr731  O3018     0.63341      .   S
    Zr746  O3018     0.63341      .   S
    Zr481  O3019     0.63341      .   S
    Zr496  O3019     0.63341      .   S
    Zr656  O3020     0.63314      .   S
    Zr671  O3020     0.63314      .   S
    Zr1256 O3021     0.92446      .   S
    Zr724  O3021     0.92446      .   S
    Zr1256 O3022     0.94437      .   S
    Zr716  O3022     0.94437      .   S
    Zr1256 O3023     0.96051      .   S
    Zr1257 O3023     0.96051      .   S
    Zr1226 O3024     0.92457      .   S
    Zr574  O3024     0.92457      .   S
    Zr1226 O3025     0.94412      .   S
    Zr566  O3025     0.94412      .   S
    Zr1226 O3026     0.96051      .   S
    Zr1227 O3026     0.96051      .   S
    Zr1236 O3027     0.92446      .   S
    Zr474  O3027     0.92446      .   S
    Zr1236 O3028     0.94437      .   S
    Zr466  O3028     0.94437      .   S
    Zr1236 O3029     0.96051      .   S
    Zr1237 O3029     0.96051      .   S
    Zr1246 O3030     0.92426      .   S
    Zr374  O3030     0.92426      .   S
    Zr1246 O3031     0.94416      .   S
    Zr366  O3031     0.94416      .   S
    Zr1246 O3032     0.96051      .   S
    Zr1247 O3032     0.96051      .   S
    Zr1266 O3033     0.92457      .   S
    Zr849  O3033     0.92457      .   S
    Zr1266 O3034     0.94412      .   S
    Zr841  O3034     0.94412      .   S
    Zr1266 O3035     0.96051      .   S
    Zr1267 O3035     0.96051      .   S
    Zr1254 O3036     0.92426      .   S
    Zr699  O3036     0.92426      .   S
    Zr1254 O3037     0.94416      .   S
    Zr691  O3037     0.94416      .   S
    Zr1254 O3038     0.96051      .   S
    Zr1255 O3038     0.96051      .   S
    Zr165  O3039     0.95084      .   S
    Zr150  O3039     0.95084      .   S
    Zr915  O3040     0.95084      .   S
    Zr900  O3040     0.95084      .   S
    Zr1015 O3041     0.95084      .   S
    Zr1000 O3041     0.95084      .   S
    Zr1115 O3042     0.95084      .   S
    Zr1100 O3042     0.95084      .   S
    Zr40   O3043     0.95084      .   S
    Zr25   O3043     0.95084      .   S
    Zr290  O3044     0.95084      .   S
    Zr275  O3044     0.95084      .   S
    Zr719  O3045     0.63589      .   S
    Zr1461 O3045     0.63589      .   S
    Zr844  O3046     0.63614      .   S
    Zr1437 O3046     0.63614      .   S
    Zr469  O3047     0.63589      .   S
    Zr1431 O3047     0.63589      .   S
    Zr694  O3048     0.63617      .   S
    Zr1413 O3048     0.63617      .   S
    Zr369  O3049     0.63617      .   S
    Zr1407 O3049     0.63617      .   S
    Zr569  O3050     0.63614      .   S
    Zr1455 O3050     0.63614      .   S
    Zr724  O3051     0.63139      .   S
    Zr1007 O3051     0.63139      .   S
    Zr474  O3052     0.63139      .   S
    Zr157  O3052     0.63139      .   S
    Zr374  O3053     0.63139      .   S
    Zr282  O3053     0.63139      .   S
    Zr699  O3054     0.63139      .   S
    Zr1107 O3054     0.63139      .   S
    Zr849  O3055     0.63139      .   S
    Zr907  O3055     0.63139      .   S
    Zr574  O3056     0.63139      .   S
    Zr32   O3056     0.63139      .   S
    Zr659  O3057     0.93594      .   S
    Zr651  O3057     0.93594      .   S
    Zr584  O3058     0.93573      .   S
    Zr576  O3058     0.93573      .   S
    Zr809  O3059     0.93573      .   S
    Zr801  O3059     0.93573      .   S
    Zr734  O3060     0.93586      .   S
    Zr726  O3060     0.93586      .   S
    Zr484  O3061     0.93586      .   S
    Zr476  O3061     0.93586      .   S
    Zr384  O3062     0.93594      .   S
    Zr376  O3062     0.93594      .   S
    Zr707  O3063     0.63606      .   S
    Zr723  O3063     0.63606      .   S
    Zr357  O3064     0.63612      .   S
    Zr373  O3064     0.63612      .   S
    Zr832  O3065     0.63614      .   S
    Zr848  O3065     0.63614      .   S
    Zr557  O3066     0.63614      .   S
    Zr573  O3066     0.63614      .   S
    Zr457  O3067     0.63606      .   S
    Zr473  O3067     0.63606      .   S
    Zr682  O3068     0.63612      .   S
    Zr698  O3068     0.63612      .   S
    Zr671  O3069     0.93544      .   S
    Zr1404 O3069     0.93544      .   S
    Zr496  O3070     0.93487      .   S
    Zr1434 O3070     0.93487      .   S
    Zr821  O3071     0.93494      .   S
    Zr1428 O3071     0.93494      .   S
    Zr396  O3072     0.93544      .   S
    Zr1410 O3072     0.93544      .   S
    Zr746  O3073     0.93487      .   S
    Zr1452 O3073     0.93487      .   S
    Zr596  O3074     0.93494      .   S
    Zr1458 O3074     0.93494      .   S
    Zr1415 O3075     0.96249      .   S
    Zr376  O3075     0.96249      .   S
    Zr1409 O3076     0.96249      .   S
    Zr651  O3076     0.96249      .   S
    Zr1463 O3077     0.96297      .   S
    Zr576  O3077     0.96297      .   S
    Zr1439 O3078     0.96266      .   S
    Zr476  O3078     0.96266      .   S
    Zr1457 O3079     0.96266      .   S
    Zr726  O3079     0.96266      .   S
    Zr1433 O3080     0.96297      .   S
    Zr801  O3080     0.96297      .   S
    Zr907  O3081     0.63614      .   S
    Zr923  O3081     0.63614      .   S
    Zr282  O3082     0.63612      .   S
    Zr298  O3082     0.63612      .   S
    Zr32   O3083     0.63614      .   S
    Zr48   O3083     0.63614      .   S
    Zr1107 O3084     0.63612      .   S
    Zr1123 O3084     0.63612      .   S
    Zr1007 O3085     0.63636      .   S
    Zr1023 O3085     0.63636      .   S
    Zr157  O3086     0.63636      .   S
    Zr173  O3086     0.63636      .   S
    Zr1428 O3087     0.93604      .   S
    Zr462  O3087     0.93604      .   S
    Zr1428 O3088     0.93494      .   S
    Zr471  O3088     0.93494      .   S
    Zr1458 O3089     0.93604      .   S
    Zr712  O3089     0.93604      .   S
    Zr1458 O3090     0.93494      .   S
    Zr721  O3090     0.93494      .   S
    Zr1452 O3091     0.93611      .   S
    Zr562  O3091     0.93611      .   S
    Zr1452 O3092     0.93487      .   S
    Zr571  O3092     0.93487      .   S
    Zr1404 O3093     0.93581      .   S
    Zr362  O3093     0.93581      .   S
    Zr1404 O3094     0.93501      .   S
    Zr371  O3094     0.93501      .   S
    Zr1410 O3095     0.93581      .   S
    Zr687  O3095     0.93581      .   S
    Zr1410 O3096     0.93501      .   S
    Zr696  O3096     0.93501      .   S
    Zr1434 O3097     0.93611      .   S
    Zr837  O3097     0.93611      .   S
    Zr1434 O3098     0.93487      .   S
    Zr846  O3098     0.93487      .   S
    Zr466  O3099     0.63638      .   S
    Zr454  O3099     0.63638      .   S
    Zr841  O3100     0.63651      .   S
    Zr829  O3100     0.63651      .   S
    Zr716  O3101     0.63638      .   S
    Zr704  O3101     0.63638      .   S
    Zr566  O3102     0.63651      .   S
    Zr554  O3102     0.63651      .   S
    Zr366  O3103     0.63638      .   S
    Zr354  O3103     0.63638      .   S
    Zr691  O3104     0.63638      .   S
    Zr679  O3104     0.63638      .   S
    Zr687  O3105     0.63418      .   S
    Zr377  O3105     0.63418      .   S
    Zr712  O3106     0.63388      .   S
    Zr577  O3106     0.63388      .   S
    Zr837  O3107     0.63404      .   S
    Zr477  O3107     0.63404      .   S
    Zr462  O3108     0.63388      .   S
    Zr802  O3108     0.63388      .   S
    Zr362  O3109     0.63418      .   S
    Zr652  O3109     0.63418      .   S
    Zr562  O3110     0.63404      .   S
    Zr727  O3110     0.63404      .   S
    Zr1461 O3111     0.63589      .   S
    Zr594  O3111     0.63589      .   S
    Zr1455 O3112     0.63614      .   S
    Zr744  O3112     0.63614      .   S
    Zr1437 O3113     0.63614      .   S
    Zr494  O3113     0.63614      .   S
    Zr1407 O3114     0.63562      .   S
    Zr669  O3114     0.63562      .   S
    Zr1431 O3115     0.63589      .   S
    Zr819  O3115     0.63589      .   S
    Zr1413 O3116     0.63562      .   S
    Zr394  O3116     0.63562      .   S
    Zr923  O3117     0.94636      .   S
    Zr900  O3117     0.94636      .   S
    Zr173  O3118     0.94636      .   S
    Zr150  O3118     0.94636      .   S
    Zr298  O3119     0.94636      .   S
    Zr275  O3119     0.94636      .   S
    Zr48   O3120     0.94636      .   S
    Zr25   O3120     0.94636      .   S
    Zr1023 O3121     0.94636      .   S
    Zr1000 O3121     0.94636      .   S
    Zr1123 O3122     0.94636      .   S
    Zr1100 O3122     0.94636      .   S
    Zr377  O3123     0.63536      .   S
    Zr386  O3123     0.63536      .   S
    Zr802  O3124     0.63551      .   S
    Zr811  O3124     0.63551      .   S
    Zr652  O3125     0.63536      .   S
    Zr661  O3125     0.63536      .   S
    Zr727  O3126     0.63520      .   S
    Zr736  O3126     0.63520      .   S
    Zr577  O3127     0.63551      .   S
    Zr586  O3127     0.63551      .   S
    Zr477  O3128     0.63520      .   S
    Zr486  O3128     0.63520      .   S
    Zr1237 O3129     0.96649      .   S
    Zr150  O3129     0.96649      .   S
    Zr1267 O3130     0.96649      .   S
    Zr825  O3130     0.96649      .   S
    Zr1257 O3131     0.96649      .   S
    Zr1000 O3131     0.96649      .   S
    Zr1255 O3132     0.96649      .   S
    Zr1100 O3132     0.96649      .   S
    Zr1247 O3133     0.96649      .   S
    Zr275  O3133     0.96649      .   S
    Zr1227 O3134     0.96649      .   S
    Zr550  O3134     0.96649      .   S
    Zr723  O3135     0.94636      .   S
    Zr700  O3135     0.94636      .   S
    Zr573  O3136     0.94636      .   S
    Zr550  O3136     0.94636      .   S
    Zr373  O3137     0.94636      .   S
    Zr350  O3137     0.94636      .   S
    Zr848  O3138     0.94636      .   S
    Zr825  O3138     0.94636      .   S
    Zr698  O3139     0.94636      .   S
    Zr675  O3139     0.94636      .   S
    Zr473  O3140     0.94636      .   S
    Zr450  O3140     0.94636      .   S
    Zr476  O3141     0.94334      .   S
    Zr486  O3141     0.94334      .   S
    Zr476  O3142     0.94495      .   S
    Zr494  O3142     0.94495      .   S
    Zr476  O3143     0.93629      .   S
    Zr497  O3143     0.93629      .   S
    Zr376  O3144     0.94364      .   S
    Zr386  O3144     0.94364      .   S
    Zr376  O3145     0.94495      .   S
    Zr394  O3145     0.94495      .   S
    Zr376  O3146     0.93616      .   S
    Zr397  O3146     0.93616      .   S
    Zr651  O3147     0.94364      .   S
    Zr661  O3147     0.94364      .   S
    Zr651  O3148     0.94495      .   S
    Zr669  O3148     0.94495      .   S
    Zr651  O3149     0.93616      .   S
    Zr672  O3149     0.93616      .   S
    Zr576  O3150     0.94357      .   S
    Zr586  O3150     0.94357      .   S
    Zr576  O3151     0.94495      .   S
    Zr594  O3151     0.94495      .   S
    Zr576  O3152     0.93653      .   S
    Zr597  O3152     0.93653      .   S
    Zr801  O3153     0.94357      .   S
    Zr811  O3153     0.94357      .   S
    Zr801  O3154     0.94495      .   S
    Zr819  O3154     0.94495      .   S
    Zr801  O3155     0.93653      .   S
    Zr822  O3155     0.93653      .   S
    Zr726  O3156     0.94334      .   S
    Zr736  O3156     0.94334      .   S
    Zr726  O3157     0.94495      .   S
    Zr744  O3157     0.94495      .   S
    Zr726  O3158     0.93629      .   S
    Zr747  O3158     0.93629      .   S
    Zr1100 O3159     0.94705      .   S
    Zr1113 O3159     0.94705      .   S
    Zr1100 O3160     0.94964      .   S
    Zr1114 O3160     0.94964      .   S
    Zr275  O3161     0.94705      .   S
    Zr288  O3161     0.94705      .   S
    Zr275  O3162     0.94964      .   S
    Zr289  O3162     0.94964      .   S
    Zr25   O3163     0.94705      .   S
    Zr38   O3163     0.94705      .   S
    Zr25   O3164     0.94970      .   S
    Zr39   O3164     0.94970      .   S
    Zr150  O3165     0.94705      .   S
    Zr163  O3165     0.94705      .   S
    Zr150  O3166     0.94974      .   S
    Zr164  O3166     0.94974      .   S
    Zr900  O3167     0.94705      .   S
    Zr913  O3167     0.94705      .   S
    Zr900  O3168     0.94970      .   S
    Zr914  O3168     0.94970      .   S
    Zr1000 O3169     0.94705      .   S
    Zr1013 O3169     0.94705      .   S
    Zr1000 O3170     0.94974      .   S
    Zr1014 O3170     0.94974      .   S
    Zr704  O3171     0.63747      .   S
    Zr715  O3171     0.63747      .   S
    Zr454  O3172     0.63747      .   S
    Zr465  O3172     0.63747      .   S
    Zr679  O3173     0.63747      .   S
    Zr690  O3173     0.63747      .   S
    Zr354  O3174     0.63747      .   S
    Zr365  O3174     0.63747      .   S
    Zr554  O3175     0.63747      .   S
    Zr565  O3175     0.63747      .   S
    Zr829  O3176     0.63747      .   S
    Zr840  O3176     0.63747      .   S
    Zr288  O3177     0.63699      .   S
    Zr278  O3177     0.63699      .   S
    Zr913  O3178     0.63699      .   S
    Zr903  O3178     0.63699      .   S
    Zr163  O3179     0.63699      .   S
    Zr153  O3179     0.63699      .   S
    Zr38   O3180     0.63699      .   S
    Zr28   O3180     0.63699      .   S
    Zr1113 O3181     0.63699      .   S
    Zr1103 O3181     0.63699      .   S
    Zr1013 O3182     0.63699      .   S
    Zr1003 O3182     0.63699      .   S
    Zr570  O3183     0.94522  1_565   S
    Zr1318 O3183     0.94522      .   S
    Zr570  O3184     0.63651      .   S
    Zr1456 O3184     0.63651      .   S
    Zr720  O3185     0.94522  1_565   S
    Zr1318 O3185     0.94522      .   S
    Zr720  O3186     0.63651      .   S
    Zr1462 O3186     0.63651      .   S
    Zr695  O3187     0.94522      .   S
    Zr1310 O3187     0.94522      .   S
    Zr695  O3188     0.63651      .   S
    Zr1414 O3188     0.63651      .   S
    Zr370  O3189     0.94522      .   S
    Zr1310 O3189     0.94522      .   S
    Zr370  O3190     0.63651      .   S
    Zr1408 O3190     0.63651      .   S
    Zr470  O3191     0.94522  1_655   S
    Zr1314 O3191     0.94522      .   S
    Zr470  O3192     0.63651      .   S
    Zr1432 O3192     0.63651      .   S
    Zr845  O3193     0.94522  1_655   S
    Zr1314 O3193     0.94522      .   S
    Zr845  O3194     0.63651      .   S
    Zr1438 O3194     0.63651      .   S
    Zr696  O3195     0.63336      .   S
    Zr681  O3195     0.63336      .   S
    Zr721  O3196     0.63319      .   S
    Zr706  O3196     0.63319      .   S
    Zr371  O3197     0.63336      .   S
    Zr356  O3197     0.63336      .   S
    Zr571  O3198     0.63341      .   S
    Zr556  O3198     0.63341      .   S
    Zr846  O3199     0.63341      .   S
    Zr831  O3199     0.63341      .   S
    Zr471  O3200     0.63319      .   S
    Zr456  O3200     0.63319      .   S
    Zr1318 O3201     0.94461      .   S
    Zr568  O3201     0.94461      .   S
    Zr1318 O3202     0.94483      .   S
    Zr718  O3202     0.94483      .   S
    Zr1318 O3203     0.96312      .   S
    Zr1295 O3203     0.96312  1_565   S
    Zr1314 O3204     0.94483      .   S
    Zr468  O3204     0.94483      .   S
    Zr1314 O3205     0.94461      .   S
    Zr843  O3205     0.94461      .   S
    Zr1314 O3206     0.96312      .   S
    Zr1291 O3206     0.96312  1_655   S
    Zr1310 O3207     0.94453      .   S
    Zr693  O3207     0.94453      .   S
    Zr1310 O3208     0.94453      .   S
    Zr368  O3208     0.94453      .   S
    Zr1310 O3209     0.96312      .   S
    Zr1287 O3209     0.96312      .   S
    Zr468  O3210     0.63614      .   S
    Zr455  O3210     0.63614      .   S
    Zr693  O3211     0.63637      .   S
    Zr680  O3211     0.63637      .   S
    Zr843  O3212     0.63626      .   S
    Zr830  O3212     0.63626      .   S
    Zr568  O3213     0.63626      .   S
    Zr555  O3213     0.63626      .   S
    Zr368  O3214     0.63637      .   S
    Zr355  O3214     0.63637      .   S
    Zr718  O3215     0.63614      .   S
    Zr705  O3215     0.63614      .   S
    Zr153  O3216     0.63746      .   S
    Zr464  O3216     0.63746      .   S
    Zr28   O3217     0.63776      .   S
    Zr564  O3217     0.63776      .   S
    Zr1103 O3218     0.63761      .   S
    Zr689  O3218     0.63761      .   S
    Zr1003 O3219     0.63746      .   S
    Zr714  O3219     0.63746      .   S
    Zr278  O3220     0.63761      .   S
    Zr364  O3220     0.63761      .   S
    Zr903  O3221     0.63776      .   S
    Zr839  O3221     0.63776      .   S
    Zr690  O3222     0.95084      .   S
    Zr675  O3222     0.95084      .   S
    Zr365  O3223     0.95084      .   S
    Zr350  O3223     0.95084      .   S
    Zr715  O3224     0.95084      .   S
    Zr700  O3224     0.95084      .   S
    Zr840  O3225     0.95084      .   S
    Zr825  O3225     0.95084      .   S
    Zr465  O3226     0.95084      .   S
    Zr450  O3226     0.95084      .   S
    Zr565  O3227     0.95084      .   S
    Zr550  O3227     0.95084      .   S
    Zr550  O3228     0.94970      .   S
    Zr564  O3228     0.94970      .   S
    Zr550  O3229     0.94705      .   S
    Zr563  O3229     0.94705      .   S
    Zr825  O3230     0.94970      .   S
    Zr839  O3230     0.94970      .   S
    Zr825  O3231     0.94705      .   S
    Zr838  O3231     0.94705      .   S
    Zr700  O3232     0.94994      .   S
    Zr714  O3232     0.94994      .   S
    Zr700  O3233     0.94705      .   S
    Zr713  O3233     0.94705      .   S
    Zr675  O3234     0.94964      .   S
    Zr689  O3234     0.94964      .   S
    Zr675  O3235     0.94705      .   S
    Zr688  O3235     0.94705      .   S
    Zr350  O3236     0.94964      .   S
    Zr364  O3236     0.94964      .   S
    Zr350  O3237     0.94705      .   S
    Zr363  O3237     0.94705      .   S
    Zr450  O3238     0.94994      .   S
    Zr464  O3238     0.94994      .   S
    Zr450  O3239     0.94705      .   S
    Zr463  O3239     0.94705      .   S
    Zr1462 O3240     0.63651      .   S
    Zr595  O3240     0.63651      .   S
    Zr1438 O3241     0.63651      .   S
    Zr495  O3241     0.63651      .   S
    Zr1408 O3242     0.63651      .   S
    Zr670  O3242     0.63651      .   S
    Zr1432 O3243     0.63651      .   S
    Zr820  O3243     0.63651      .   S
    Zr1456 O3244     0.63651      .   S
    Zr745  O3244     0.63651      .   S
    Zr1414 O3245     0.63651      .   S
    Zr395  O3245     0.63651      .   S
    Zr822  O3246     0.63497      .   S
    Zr456  O3246     0.63497      .   S
    Zr597  O3247     0.63497      .   S
    Zr706  O3247     0.63497      .   S
    Zr397  O3248     0.63525      .   S
    Zr681  O3248     0.63525      .   S
    Zr497  O3249     0.63522      .   S
    Zr831  O3249     0.63522      .   S
    Zr747  O3250     0.63522      .   S
    Zr556  O3250     0.63522      .   S
    Zr672  O3251     0.63525      .   S
    Zr356  O3251     0.63525      .   S
    Zr164  O3252     0.63754      .   S
    Zr453  O3252     0.63754      .   S
    Zr914  O3253     0.63776      .   S
    Zr828  O3253     0.63776      .   S
    Zr289  O3254     0.63761      .   S
    Zr353  O3254     0.63761      .   S
    Zr1014 O3255     0.63754      .   S
    Zr703  O3255     0.63754      .   S
    Zr1114 O3256     0.63761      .   S
    Zr678  O3256     0.63761      .   S
    Zr39   O3257     0.63776      .   S
    Zr553  O3257     0.63776      .   S
    Zr838  O3258     0.63699      .   S
    Zr828  O3258     0.63699      .   S
    Zr363  O3259     0.63699      .   S
    Zr353  O3259     0.63699      .   S
    Zr688  O3260     0.63699      .   S
    Zr678  O3260     0.63699      .   S
    Zr563  O3261     0.63699      .   S
    Zr553  O3261     0.63699      .   S
    Zr713  O3262     0.63699      .   S
    Zr703  O3262     0.63699      .   S
    Zr463  O3263     0.63699      .   S
    Zr453  O3263     0.63699      .   S
    Zr1225 O3264     0.96649      .   S
    Zr0    O3264     0.96649      .   S
    Zr1227 O3265     0.96649      .   S
    Zr25   O3265     0.96649      .   S
    Zr1229 O3266     0.96649      .   S
    Zr50   O3266     0.96649      .   S
    Zr1231 O3267     0.96649      .   S
    Zr500  O3267     0.96649      .   S
    Zr1233 O3268     0.96649      .   S
    Zr400  O3268     0.96649      .   S
    Zr1235 O3269     0.96649      .   S
    Zr125  O3269     0.96649      .   S
    Zr1237 O3270     0.96649      .   S
    Zr450  O3270     0.96649      .   S
    Zr1239 O3271     0.96649      .   S
    Zr425  O3271     0.96649      .   S
    Zr1241 O3272     0.96649      .   S
    Zr200  O3272     0.96649      .   S
    Zr1243 O3273     0.96649      .   S
    Zr225  O3273     0.96649      .   S
    Zr1245 O3274     0.96649      .   S
    Zr325  O3274     0.96649      .   S
    Zr1247 O3275     0.96649      .   S
    Zr350  O3275     0.96649      .   S
    Zr1249 O3276     0.96649      .   S
    Zr600  O3276     0.96649      .   S
    Zr1251 O3277     0.96649      .   S
    Zr1150 O3277     0.96649      .   S
    Zr1253 O3278     0.96649      .   S
    Zr650  O3278     0.96649      .   S
    Zr1255 O3279     0.96649      .   S
    Zr675  O3279     0.96649      .   S
    Zr1257 O3280     0.96649      .   S
    Zr700  O3280     0.96649      .   S
    Zr1259 O3281     0.96649      .   S
    Zr1075 O3281     0.96649      .   S
    Zr1261 O3282     0.96649      .   S
    Zr750  O3282     0.96649      .   S
    Zr1263 O3283     0.96649      .   S
    Zr775  O3283     0.96649      .   S
    Zr1265 O3284     0.96649      .   S
    Zr975  O3284     0.96649      .   S
    Zr1267 O3285     0.96649      .   S
    Zr900  O3285     0.96649      .   S
    Zr1269 O3286     0.96649      .   S
    Zr925  O3286     0.96649      .   S
    Zr1271 O3287     0.96649      .   S
    Zr950  O3287     0.96649      .   S
    Zr1273 O3288     0.96601      .   S
    Zr1272 O3288     0.96601      .   S
    Zr1275 O3289     0.96601      .   S
    Zr1274 O3289     0.96601      .   S
    Zr1277 O3290     0.96601      .   S
    Zr1276 O3290     0.96601      .   S
    Zr1279 O3291     0.96601      .   S
    Zr1278 O3291     0.96601      .   S
    Zr1281 O3292     0.96601      .   S
    Zr1280 O3292     0.96601      .   S
    Zr1283 O3293     0.96601      .   S
    Zr1282 O3293     0.96601      .   S
    Zr1285 O3294     0.96601  1_665   S
    Zr1284 O3294     0.96601      .   S
    Zr1287 O3295     0.96601  1_556   S
    Zr1286 O3295     0.96601      .   S
    Zr1289 O3296     0.96601  1_565   S
    Zr1288 O3296     0.96601      .   S
    Zr1291 O3297     0.96601  1_656   S
    Zr1290 O3297     0.96601      .   S
    Zr1293 O3298     0.96601  1_655   S
    Zr1292 O3298     0.96601      .   S
    Zr1295 O3299     0.96601  1_566   S
    Zr1294 O3299     0.96601      .   S
    Zr1325 O3300     0.96456      .   S
    Zr1320 O3300     0.96456      .   S
    Zr1331 O3301     0.96456      .   S
    Zr1326 O3301     0.96456      .   S
    Zr1337 O3302     0.96456      .   S
    Zr1332 O3302     0.96456      .   S
    Zr1343 O3303     0.96456      .   S
    Zr1338 O3303     0.96456      .   S
    Zr1349 O3304     0.96456      .   S
    Zr1344 O3304     0.96456      .   S
    Zr1355 O3305     0.96456      .   S
    Zr1350 O3305     0.96456      .   S
    Zr1361 O3306     0.96456      .   S
    Zr1356 O3306     0.96456      .   S
    Zr1367 O3307     0.96456      .   S
    Zr1362 O3307     0.96456      .   S
    Zr1373 O3308     0.96456      .   S
    Zr1368 O3308     0.96456      .   S
    Zr1379 O3309     0.96456      .   S
    Zr1374 O3309     0.96456      .   S
    Zr1385 O3310     0.96456      .   S
    Zr1380 O3310     0.96456      .   S
    Zr1391 O3311     0.96456      .   S
    Zr1386 O3311     0.96456      .   S
    Zr1397 O3312     0.96456      .   S
    Zr1392 O3312     0.96456      .   S
    Zr1403 O3313     0.96456      .   S
    Zr1398 O3313     0.96456      .   S
    Zr1409 O3314     0.96456      .   S
    Zr1404 O3314     0.96456      .   S
    Zr1415 O3315     0.96456      .   S
    Zr1410 O3315     0.96456      .   S
    Zr1421 O3316     0.96456      .   S
    Zr1416 O3316     0.96456      .   S
    Zr1427 O3317     0.96456      .   S
    Zr1422 O3317     0.96456      .   S
    Zr1433 O3318     0.96456      .   S
    Zr1428 O3318     0.96456      .   S
    Zr1439 O3319     0.96456      .   S
    Zr1434 O3319     0.96456      .   S
    Zr1445 O3320     0.96456      .   S
    Zr1440 O3320     0.96456      .   S
    Zr1451 O3321     0.96456      .   S
    Zr1446 O3321     0.96456      .   S
    Zr1457 O3322     0.96456      .   S
    Zr1452 O3322     0.96456      .   S
    Zr1463 O3323     0.96456      .   S
    Zr1458 O3323     0.96456      .   S
    Zr1488 O3324     0.96235      .   S
    Zr1200 O3324     0.96235      .   S
    Zr1489 O3325     0.96244      .   S
    Zr1206 O3325     0.96244      .   S
    Zr1490 O3326     0.96244      .   S
    Zr1209 O3326     0.96244      .   S
    Zr1491 O3327     0.96244      .   S
    Zr1205 O3327     0.96244      .   S
    Zr1492 O3328     0.96244      .   S
    Zr1212 O3328     0.96244      .   S
    Zr1493 O3329     0.96235      .   S
    Zr1218 O3329     0.96235      .   S
    Zr1494 O3330     0.96244      .   S
    Zr1219 O3330     0.96244      .   S
    Zr1495 O3331     0.96244      .   S
    Zr1222 O3331     0.96244      .   S
    N3332  O3333     1.09480      .   S
    Zr80   O3333     1.84858      .   S
    N3332  O3334     1.09507      .   S
    Zr79   O3334     1.84943      .   S
    N3335  O3336     1.09474      .   S
    Zr255  O3336     1.84852      .   S
    N3335  O3337     1.09513      .   S
    Zr254  O3337     1.84948      .   S
    N3338  O3339     1.07549      .   S
    Zr1354 O3339     1.78811      .   S
    N3338  O3340     1.09097      .   S
    Zr1353 O3340     1.84273      .   S
    N3341  O3342     1.08381      .   S
    Zr902  O3342     1.82991      .   S
    N3341  O3343     1.08375      .   S
    Zr152  O3343     1.82922      .   S
    N3344  O3345     1.09518      .   S
    Zr204  O3345     1.84953      .   S
    N3344  O3346     1.09470      .   S
    Zr205  O3346     1.84847      .   S
    N3347  O3348     1.07667      .   S
    Zr732  O3348     1.81683      .   S
    N3347  O3349     1.07506      .   S
    Zr231  O3349     1.81432      .   S
    N3350  O3351     1.08375      .   S
    Zr977  O3351     1.82922      .   S
    N3350  O3352     1.08381      .   S
    Zr127  O3352     1.82991      .   S
    N3353  O3354     1.07552      .   S
    Zr1372 O3354     1.78813      .   S
    N3353  O3355     1.09121      .   S
    Zr1371 O3355     1.84297      .   S
    N3356  O3357     1.09608      .   S
    Zr1103 O3357     1.85081      .   S
    N3356  O3358     1.09593      .   S
    Zr153  O3358     1.85097      .   S
    N3359  O3360     1.09608      .   S
    Zr1028 O3360     1.85081      .   S
    N3359  O3361     1.09593      .   S
    Zr253  O3361     1.85097      .   S
    N3362  O3363     1.09518      .   S
    Zr329  O3363     1.84953      .   S
    N3362  O3364     1.09470      .   S
    Zr330  O3364     1.84847      .   S
    N3365  O3366     1.09608      .   S
    Zr428  O3366     1.85081  1_565   S
    N3365  O3367     1.09593      .   S
    Zr853  O3367     1.85097      .   S
    N3368  O3369     1.08375      .   S
    Zr652  O3369     1.82922      .   S
    N3368  O3370     1.08381      .   S
    Zr477  O3370     1.82991      .   S
    N3371  O3372     1.07506      .   S
    Zr31   O3372     1.81432      .   S
    N3371  O3373     1.07667      .   S
    Zr832  O3373     1.81683      .   S
    N3374  O3375     1.09601      .   S
    Zr628  O3375     1.85089  1_655   S
    N3374  O3376     1.09601      .   S
    Zr303  O3376     1.85089  1_565   S
    N3377  O3378     1.09601      .   S
    Zr478  O3378     1.85089  1_655   S
    N3377  O3379     1.09601      .   S
    Zr828  O3379     1.85089  1_556   S
    N3380  O3381     1.09507      .   S
    Zr504  O3381     1.84943      .   S
    N3380  O3382     1.09480      .   S
    Zr505  O3382     1.84858      .   S
    N3383  O3384     1.06044      .   S
    Zr1466 O3384     1.76332      .   S
    N3383  O3385     1.06044      .   S
    Zr1467 O3385     1.76332      .   S
    N3386  O3387     1.07552      .   S
    Zr1426 O3387     1.78813      .   S
    N3386  O3388     1.09120      .   S
    Zr1425 O3388     1.84296      .   S
    N3389  O3390     1.07504      .   S
    Zr1106 O3390     1.81430      .   S
    N3389  O3391     1.07675      .   S
    Zr457  O3391     1.81705      .   S
    N3392  O3393     1.08378      .   S
    Zr877  O3393     1.82958      .   S
    N3392  O3394     1.08378      .   S
    Zr502  O3394     1.82958      .   S
    N3395  O3396     1.07675      .   S
    Zr7    O3396     1.81705      .   S
    N3395  O3397     1.07504      .   S
    Zr781  O3397     1.81430  1_655   S
    N3398  O3399     1.09120      .   S
    Zr1383 O3399     1.84296      .   S
    N3398  O3400     1.07552      .   S
    Zr1384 O3400     1.78813      .   S
    N3401  O3402     1.07640      .   S
    Zr1412 O3402     1.81650      .   S
    N3401  O3403     1.07590      .   S
    Zr1411 O3403     1.81586      .   S
    N3404  O3405     1.07552      .   S
    Zr1408 O3405     1.78813      .   S
    N3404  O3406     1.09120      .   S
    Zr1407 O3406     1.84296      .   S
    N3407  O3408     1.07685      .   S
    Zr82   O3408     1.81729      .   S
    N3407  O3409     1.07501      .   S
    Zr756  O3409     1.81426      .   S
    N3410  O3411     1.09513      .   S
    Zr979  O3411     1.84948      .   S
    N3410  O3412     1.09474      .   S
    Zr980  O3412     1.84852      .   S
    N3413  O3414     1.08375      .   S
    Zr402  O3414     1.82922      .   S
    N3413  O3415     1.08381      .   S
    Zr627  O3415     1.82991      .   S
    N3416  O3417     1.09480      .   S
    Zr30   O3417     1.84858      .   S
    N3416  O3418     1.09507      .   S
    Zr29   O3418     1.84942      .   S
    N3419  O3420     1.09120      .   S
    Zr1335 O3420     1.84296      .   S
    N3419  O3421     1.07552      .   S
    Zr1336 O3421     1.78813      .   S
    N3422  O3423     1.07638      .   S
    Zr1376 O3423     1.81683      .   S
    N3422  O3424     1.07592      .   S
    Zr1375 O3424     1.81588      .   S
    N3425  O3426     1.09593      .   S
    Zr1003 O3426     1.85097      .   S
    N3425  O3427     1.09608      .   S
    Zr278  O3427     1.85081      .   S
    N3428  O3429     1.07590      .   S
    Zr1387 O3429     1.81586      .   S
    N3428  O3430     1.07640      .   S
    Zr1388 O3430     1.81650      .   S
    N3431  O3432     1.09518      .   S
    Zr704  O3432     1.84953      .   S
    N3431  O3433     1.09470      .   S
    Zr705  O3433     1.84847      .   S
    N3434  O3435     1.07675      .   S
    Zr607  O3435     1.81705      .   S
    N3434  O3436     1.07504      .   S
    Zr181  O3436     1.81430      .   S
    N3437  O3438     1.06044      .   S
    Zr1484 O3438     1.76332      .   S
    N3437  O3439     1.06044      .   S
    Zr1485 O3439     1.76332      .   S
    N3440  O3441     1.09507      .   S
    Zr954  O3441     1.84943      .   S
    N3440  O3442     1.09480      .   S
    Zr955  O3442     1.84858      .   S
    N3443  O3444     1.09507      .   S
    Zr129  O3444     1.84942      .   S
    N3443  O3445     1.09480      .   S
    Zr130  O3445     1.84858      .   S
    N3446  O3447     1.09518      .   S
    Zr4    O3447     1.84953      .   S
    N3446  O3448     1.09470      .   S
    Zr5    O3448     1.84847      .   S
    N3449  O3450     1.09480      .   S
    Zr905  O3450     1.84858      .   S
    N3449  O3451     1.09507      .   S
    Zr904  O3451     1.84942      .   S
    N3452  O3453     1.07506      .   S
    Zr931  O3453     1.81432      .   S
    N3452  O3454     1.07667      .   S
    Zr532  O3454     1.81683      .   S
    N3455  O3456     1.09121      .   S
    Zr1347 O3456     1.84297      .   S
    N3455  O3457     1.07552      .   S
    Zr1348 O3457     1.78813      .   S
    N3458  O3459     1.07501      .   S
    Zr406  O3459     1.81426      .   S
    N3458  O3460     1.07685      .   S
    Zr957  O3460     1.81729      .   S
    N3461  O3462     1.09474      .   S
    Zr55   O3462     1.84852      .   S
    N3461  O3463     1.09513      .   S
    Zr54   O3463     1.84948      .   S
    N3464  O3465     1.07638      .   S
    Zr1328 O3465     1.81683      .   S
    N3464  O3466     1.07592      .   S
    Zr1327 O3466     1.81588      .   S
    N3467  O3468     1.07501      .   S
    Zr156  O3468     1.81426      .   S
    N3467  O3469     1.07685      .   S
    Zr682  O3469     1.81729      .   S
    N3470  O3471     1.09474      .   S
    Zr755  O3471     1.84852      .   S
    N3470  O3472     1.09513      .   S
    Zr754  O3472     1.84948      .   S
    N3473  O3474     1.09593      .   S
    Zr378  O3474     1.85097      .   S
    N3473  O3475     1.09608      .   S
    Zr678  O3475     1.85081  1_556   S
    N3476  O3477     1.09601      .   S
    Zr903  O3477     1.85089      .   S
    N3476  O3478     1.09601      .   S
    Zr28   O3478     1.85089      .   S
    N3479  O3480     1.07637      .   S
    Zr1322 O3480     1.81698      .   S
    N3479  O3481     1.07593      .   S
    Zr1321 O3481     1.81589      .   S
    N3482  O3483     1.09474      .   S
    Zr380  O3483     1.84852      .   S
    N3482  O3484     1.09513      .   S
    Zr379  O3484     1.84948      .   S
    N3485  O3486     1.07685      .   S
    Zr182  O3486     1.81729      .   S
    N3485  O3487     1.07501      .   S
    Zr856  O3487     1.81426      .   S
    N3488  O3489     1.08378      .   S
    Zr2    O3489     1.82956      .   S
    N3488  O3490     1.08378      .   S
    Zr1052 O3490     1.82956      .   S
    N3491  O3492     1.07685      .   S
    Zr1107 O3492     1.81729      .   S
    N3491  O3493     1.07501      .   S
    Zr381  O3493     1.81426      .   S
    N3494  O3495     1.07675      .   S
    Zr107  O3495     1.81705      .   S
    N3494  O3496     1.07504      .   S
    Zr881  O3496     1.81430  1_565   S
    N3497  O3498     1.08375      .   S
    Zr377  O3498     1.82922      .   S
    N3497  O3499     1.08381      .   S
    Zr727  O3499     1.82991      .   S
    N3500  O3501     1.07504      .   S
    Zr356  O3501     1.81430  1_556   S
    N3500  O3502     1.07675      .   S
    Zr1182 O3502     1.81705      .   S
    N3503  O3504     1.07590      .   S
    Zr1423 O3504     1.81586      .   S
    N3503  O3505     1.07640      .   S
    Zr1424 O3505     1.81650      .   S
    N3506  O3507     1.09507      .   S
    Zr279  O3507     1.84943      .   S
    N3506  O3508     1.09480      .   S
    Zr280  O3508     1.84858      .   S
    N3509  O3510     1.07506      .   S
    Zr1181 O3510     1.81432      .   S
    N3509  O3511     1.07667      .   S
    Zr407  O3511     1.81683      .   S
    N3512  O3513     1.08381      .   S
    Zr1152 O3513     1.82991      .   S
    N3512  O3514     1.08375      .   S
    Zr252  O3514     1.82922      .   S
    N3515  O3516     1.09507      .   S
    Zr879  O3516     1.84943      .   S
    N3515  O3517     1.09480      .   S
    Zr880  O3517     1.84858      .   S
    N3518  O3519     1.07640      .   S
    Zr1442 O3519     1.81650      .   S
    N3518  O3520     1.07590      .   S
    Zr1441 O3520     1.81586      .   S
    N3521  O3522     1.07592      .   S
    Zr1393 O3522     1.81588      .   S
    N3521  O3523     1.07638      .   S
    Zr1394 O3523     1.81683      .   S
    N3524  O3525     1.09121      .   S
    Zr1323 O3525     1.84297      .   S
    N3524  O3526     1.07552      .   S
    Zr1324 O3526     1.78813      .   S
    N3527  O3528     1.09507      .   S
    Zr629  O3528     1.84942      .   S
    N3527  O3529     1.09480      .   S
    Zr630  O3529     1.84858      .   S
    N3530  O3531     1.07667      .   S
    Zr857  O3531     1.81683      .   S
    N3530  O3532     1.07506      .   S
    Zr6    O3532     1.81432      .   S
    N3533  O3534     1.07675      .   S
    Zr207  O3534     1.81705      .   S
    N3533  O3535     1.07504      .   S
    Zr681  O3535     1.81430  1_556   S
    N3536  O3537     1.09470      .   S
    Zr105  O3537     1.84847      .   S
    N3536  O3538     1.09518      .   S
    Zr104  O3538     1.84953      .   S
    N3539  O3540     1.07506      .   S
    Zr831  O3540     1.81432  1_556   S
    N3539  O3541     1.07667      .   S
    Zr132  O3541     1.81683      .   S
    N3542  O3543     1.09518      .   S
    Zr1179 O3543     1.84953      .   S
    N3542  O3544     1.09470      .   S
    Zr1180 O3544     1.84847      .   S
    N3545  O3546     1.09601      .   S
    Zr453  O3546     1.85088  1_556   S
    N3545  O3547     1.09601      .   S
    Zr803  O3547     1.85088  1_655   S
    N3548  O3549     1.09518      .   S
    Zr804  O3549     1.84953      .   S
    N3548  O3550     1.09470      .   S
    Zr805  O3550     1.84847      .   S
    N3551  O3552     1.07685      .   S
    Zr1032 O3552     1.81729      .   S
    N3551  O3553     1.07501      .   S
    Zr531  O3553     1.81426      .   S
    N3554  O3555     1.09593      .   S
    Zr653  O3555     1.85097      .   S
    N3554  O3556     1.09608      .   S
    Zr353  O3556     1.85081  1_556   S
    N3557  O3558     1.07640      .   S
    Zr1358 O3558     1.81650      .   S
    N3557  O3559     1.07590      .   S
    Zr1357 O3559     1.81586      .   S
    N3560  O3561     1.09601      .   S
    Zr578  O3561     1.85088  1_565   S
    N3560  O3562     1.09601      .   S
    Zr703  O3562     1.85088  1_556   S
    N3563  O3564     1.09480      .   S
    Zr555  O3564     1.84858      .   S
    N3563  O3565     1.09507      .   S
    Zr554  O3565     1.84942      .   S
    N3566  O3567     1.06050      .   S
    Zr1476 O3567     1.76338      .   S
    N3566  O3568     1.06038      .   S
    Zr1477 O3568     1.76326      .   S
    N3569  O3570     1.07667      .   S
    Zr757  O3570     1.81683      .   S
    N3569  O3571     1.07506      .   S
    Zr206  O3571     1.81432      .   S
    N3572  O3573     1.09608      .   S
    Zr953  O3573     1.85081      .   S
    N3572  O3574     1.09593      .   S
    Zr53   O3574     1.85097      .   S
    N3575  O3576     1.07590      .   S
    Zr1363 O3576     1.81586      .   S
    N3575  O3577     1.07640      .   S
    Zr1364 O3577     1.81650      .   S
    N3578  O3579     1.07501      .   S
    Zr656  O3579     1.81426      .   S
    N3578  O3580     1.07685      .   S
    Zr282  O3580     1.81729      .   S
    N3581  O3582     1.07506      .   S
    Zr706  O3582     1.81432  1_556   S
    N3581  O3583     1.07667      .   S
    Zr57   O3583     1.81683      .   S
    N3584  O3585     1.08378      .   S
    Zr427  O3585     1.82958      .   S
    N3584  O3586     1.08378      .   S
    Zr677  O3586     1.82958      .   S
    N3587  O3588     1.09608      .   S
    Zr78   O3588     1.85081      .   S
    N3587  O3589     1.09593      .   S
    Zr978  O3589     1.85097      .   S
    N3590  O3591     1.07504      .   S
    Zr956  O3591     1.81430      .   S
    N3590  O3592     1.07675      .   S
    Zr582  O3592     1.81705      .   S
    N3593  O3594     1.07506      .   S
    Zr581  O3594     1.81432  1_565   S
    N3593  O3595     1.07667      .   S
    Zr1007 O3595     1.81683      .   S
    N3596  O3597     1.06038      .   S
    Zr1464 O3597     1.76326      .   S
    N3596  O3598     1.06050      .   S
    Zr1465 O3598     1.76338      .   S
    N3599  O3600     1.07640      .   S
    Zr1418 O3600     1.81650      .   S
    N3599  O3601     1.07590      .   S
    Zr1417 O3601     1.81586      .   S
    N3602  O3603     1.09518      .   S
    Zr604  O3603     1.84953      .   S
    N3602  O3604     1.09470      .   S
    Zr605  O3604     1.84847      .   S
    N3605  O3606     1.08375      .   S
    Zr1127 O3606     1.82922      .   S
    N3605  O3607     1.08381      .   S
    Zr227  O3607     1.82991      .   S
    N3608  O3609     1.09601      .   S
    Zr1178 O3609     1.85088      .   S
    N3608  O3610     1.09601      .   S
    Zr103  O3610     1.85088      .   S
    N3611  O3612     1.09480      .   S
    Zr1080 O3612     1.84858      .   S
    N3611  O3613     1.09507      .   S
    Zr1079 O3613     1.84942      .   S
    N3614  O3615     1.09480      .   S
    Zr355  O3615     1.84858      .   S
    N3614  O3616     1.09507      .   S
    Zr354  O3616     1.84943      .   S
    N3617  O3618     1.06050      .   S
    Zr1486 O3618     1.76338      .   S
    N3617  O3619     1.06038      .   S
    Zr1487 O3619     1.76326      .   S
    N3620  O3621     1.07590      .   S
    Zr1447 O3621     1.81586      .   S
    N3620  O3622     1.07640      .   S
    Zr1448 O3622     1.81650      .   S
    N3623  O3624     1.09480      .   S
    Zr1155 O3624     1.84858      .   S
    N3623  O3625     1.09507      .   S
    Zr1154 O3625     1.84942      .   S
    N3626  O3627     1.07590      .   S
    Zr1339 O3627     1.81586      .   S
    N3626  O3628     1.07640      .   S
    Zr1340 O3628     1.81650      .   S
    N3629  O3630     1.09474      .   S
    Zr530  O3630     1.84852      .   S
    N3629  O3631     1.09513      .   S
    Zr529  O3631     1.84948      .   S
    N3632  O3633     1.07501      .   S
    Zr981  O3633     1.81426      .   S
    N3632  O3634     1.07685      .   S
    Zr507  O3634     1.81729      .   S
    N3635  O3636     1.08381      .   S
    Zr1077 O3636     1.82991      .   S
    N3635  O3637     1.08375      .   S
    Zr52   O3637     1.82922      .   S
    N3638  O3639     1.06044      .   S
    Zr1478 O3639     1.76332      .   S
    N3638  O3640     1.06044      .   S
    Zr1479 O3640     1.76332      .   S
    N3641  O3642     1.07667      .   S
    Zr257  O3642     1.81683      .   S
    N3641  O3643     1.07506      .   S
    Zr606  O3643     1.81432  1_565   S
    N3644  O3645     1.07506      .   S
    Zr131  O3645     1.81432      .   S
    N3644  O3646     1.07667      .   S
    Zr632  O3646     1.81683      .   S
    N3647  O3648     1.07501      .   S
    Zr56   O3648     1.81426      .   S
    N3647  O3649     1.07685      .   S
    Zr882  O3649     1.81729      .   S
    N3650  O3651     1.07592      .   S
    Zr1435 O3651     1.81588      .   S
    N3650  O3652     1.07638      .   S
    Zr1436 O3652     1.81683      .   S
    N3653  O3654     1.08378      .   S
    Zr1102 O3654     1.82958      .   S
    N3653  O3655     1.08378      .   S
    Zr277  O3655     1.82958      .   S
    N3656  O3657     1.08378      .   S
    Zr352  O3657     1.82958      .   S
    N3656  O3658     1.08378      .   S
    Zr777  O3658     1.82958      .   S
    N3659  O3660     1.09097      .   S
    Zr1395 O3660     1.84273      .   S
    N3659  O3661     1.07549      .   S
    Zr1396 O3661     1.78811      .   S
    N3662  O3663     1.09120      .   S
    Zr1443 O3663     1.84296      .   S
    N3662  O3664     1.07552      .   S
    Zr1444 O3664     1.78813      .   S
    N3665  O3666     1.07506      .   S
    Zr556  O3666     1.81432  1_556   S
    N3665  O3667     1.07667      .   S
    Zr1082 O3667     1.81683      .   S
    N3668  O3669     1.07667      .   S
    Zr32   O3669     1.81683      .   S
    N3668  O3670     1.07506      .   S
    Zr731  O3670     1.81432  1_565   S
    N3671  O3672     1.09507      .   S
    Zr729  O3672     1.84942      .   S
    N3671  O3673     1.09480      .   S
    Zr730  O3673     1.84858      .   S
    N3674  O3675     1.09097      .   S
    Zr1329 O3675     1.84273      .   S
    N3674  O3676     1.07549      .   S
    Zr1330 O3676     1.78811      .   S
    N3677  O3678     1.09518      .   S
    Zr579  O3678     1.84953      .   S
    N3677  O3679     1.09470      .   S
    Zr580  O3679     1.84847      .   S
    N3680  O3681     1.09474      .   S
    Zr655  O3681     1.84852      .   S
    N3680  O3682     1.09513      .   S
    Zr654  O3682     1.84948      .   S
    N3683  O3684     1.07504      .   S
    Zr506  O3684     1.81430  1_655   S
    N3683  O3685     1.07675      .   S
    Zr1057 O3685     1.81705      .   S
    N3686  O3687     1.09507      .   S
    Zr679  O3687     1.84943      .   S
    N3686  O3688     1.09480      .   S
    Zr680  O3688     1.84858      .   S
    N3689  O3690     1.08378      .   S
    Zr77   O3690     1.82958      .   S
    N3689  O3691     1.08378      .   S
    Zr1027 O3691     1.82958      .   S
    N3692  O3693     1.07667      .   S
    Zr232  O3693     1.81683      .   S
    N3692  O3694     1.07506      .   S
    Zr631  O3694     1.81432  1_655   S
    N3695  O3696     1.09474      .   S
    Zr405  O3696     1.84852      .   S
    N3695  O3697     1.09513      .   S
    Zr404  O3697     1.84948      .   S
    N3698  O3699     1.08378      .   S
    Zr327  O3699     1.82956      .   S
    N3698  O3700     1.08378      .   S
    Zr702  O3700     1.82956      .   S
    N3701  O3702     1.09120      .   S
    Zr1413 O3702     1.84296      .   S
    N3701  O3703     1.07552      .   S
    Zr1414 O3703     1.78813      .   S
    N3704  O3705     1.07667      .   S
    Zr907  O3705     1.81683      .   S
    N3704  O3706     1.07506      .   S
    Zr481  O3706     1.81432  1_655   S
    N3707  O3708     1.07685      .   S
    Zr357  O3708     1.81729      .   S
    N3707  O3709     1.07501      .   S
    Zr1006 O3709     1.81426      .   S
    N3710  O3711     1.07637      .   S
    Zr1400 O3711     1.81698      .   S
    N3710  O3712     1.07593      .   S
    Zr1399 O3712     1.81589      .   S
    N3713  O3714     1.09480      .   S
    Zr780  O3714     1.84858      .   S
    N3713  O3715     1.09507      .   S
    Zr779  O3715     1.84943      .   S
    N3716  O3717     1.07667      .   S
    Zr157  O3717     1.81683      .   S
    N3716  O3718     1.07506      .   S
    Zr806  O3718     1.81432  1_655   S
    N3719  O3720     1.07667      .   S
    Zr657  O3720     1.81683      .   S
    N3719  O3721     1.07506      .   S
    Zr106  O3721     1.81432      .   S
    N3722  O3723     1.06044      .   S
    Zr1481 O3723     1.76332      .   S
    N3722  O3724     1.06044      .   S
    Zr1480 O3724     1.76332      .   S
    N3725  O3726     1.07549      .   S
    Zr1378 O3726     1.78811      .   S
    N3725  O3727     1.09097      .   S
    Zr1377 O3727     1.84273      .   S
    N3728  O3729     1.07637      .   S
    Zr1370 O3729     1.81698      .   S
    N3728  O3730     1.07593      .   S
    Zr1369 O3730     1.81589      .   S
    N3731  O3732     1.07637      .   S
    Zr1460 O3732     1.81698      .   S
    N3731  O3733     1.07593      .   S
    Zr1459 O3733     1.81589      .   S
    N3734  O3735     1.08375      .   S
    Zr752  O3735     1.82922      .   S
    N3734  O3736     1.08381      .   S
    Zr302  O3736     1.82991      .   S
    N3737  O3738     1.07675      .   S
    Zr932  O3738     1.81705      .   S
    N3737  O3739     1.07504      .   S
    Zr431  O3739     1.81430  1_565   S
    N3740  O3741     1.07504      .   S
    Zr281  O3741     1.81430      .   S
    N3740  O3742     1.07675      .   S
    Zr707  O3742     1.81705      .   S
    N3743  O3744     1.08378      .   S
    Zr452  O3744     1.82956      .   S
    N3743  O3745     1.08378      .   S
    Zr602  O3745     1.82956      .   S
    N3746  O3747     1.09507      .   S
    Zr479  O3747     1.84942      .   S
    N3746  O3748     1.09480      .   S
    Zr480  O3748     1.84858      .   S
    N3749  O3750     1.08381      .   S
    Zr827  O3750     1.82991      .   S
    N3749  O3751     1.08375      .   S
    Zr527  O3751     1.82922      .   S
    N3752  O3753     1.08378      .   S
    Zr1177 O3753     1.82956      .   S
    N3752  O3754     1.08378      .   S
    Zr202  O3754     1.82956      .   S
    N3755  O3756     1.09121      .   S
    Zr1401 O3756     1.84297      .   S
    N3755  O3757     1.07552      .   S
    Zr1402 O3757     1.78813      .   S
    N3758  O3759     1.09507      .   S
    Zr304  O3759     1.84942      .   S
    N3758  O3760     1.09480      .   S
    Zr305  O3760     1.84858      .   S
    N3761  O3762     1.07552      .   S
    Zr1360 O3762     1.78813      .   S
    N3761  O3763     1.09120      .   S
    Zr1359 O3763     1.84296      .   S
    N3764  O3765     1.07590      .   S
    Zr1333 O3765     1.81586      .   S
    N3764  O3766     1.07640      .   S
    Zr1334 O3766     1.81650      .   S
    N3767  O3768     1.09601      .   S
    Zr1053 O3768     1.85088      .   S
    N3767  O3769     1.09601      .   S
    Zr203  O3769     1.85088      .   S
    N3770  O3771     1.09593      .   S
    Zr528  O3771     1.85097      .   S
    N3770  O3772     1.09608      .   S
    Zr778  O3772     1.85081  1_655   S
    N3773  O3774     1.08381      .   S
    Zr552  O3774     1.82991      .   S
    N3773  O3775     1.08375      .   S
    Zr852  O3775     1.82922      .   S
    N3776  O3777     1.07593      .   S
    Zr1345 O3777     1.81589      .   S
    N3776  O3778     1.07637      .   S
    Zr1346 O3778     1.81698      .   S
    N3779  O3780     1.07592      .   S
    Zr1453 O3780     1.81588      .   S
    N3779  O3781     1.07638      .   S
    Zr1454 O3781     1.81683      .   S
    N3782  O3783     1.09480      .   S
    Zr430  O3783     1.84858      .   S
    N3782  O3784     1.09507      .   S
    Zr429  O3784     1.84943      .   S
    N3785  O3786     1.09480      .   S
    Zr1105 O3786     1.84858      .   S
    N3785  O3787     1.09507      .   S
    Zr1104 O3787     1.84943      .   S
    N3788  O3789     1.09608      .   S
    Zr878  O3789     1.85081  1_565   S
    N3788  O3790     1.09593      .   S
    Zr403  O3790     1.85097      .   S
    N3791  O3792     1.07506      .   S
    Zr331  O3792     1.81432  1_655   S
    N3791  O3793     1.07667      .   S
    Zr1132 O3793     1.81683      .   S
    N3794  O3795     1.06050      .   S
    Zr1483 O3795     1.76338      .   S
    N3794  O3796     1.06038      .   S
    Zr1482 O3796     1.76326      .   S
    N3797  O3798     1.09480      .   S
    Zr1030 O3798     1.84858      .   S
    N3797  O3799     1.09507      .   S
    Zr1029 O3799     1.84943      .   S
    N3800  O3801     1.07506      .   S
    Zr306  O3801     1.81432  1_565   S
    N3800  O3802     1.07667      .   S
    Zr1157 O3802     1.81683      .   S
    N3803  O3804     1.09593      .   S
    Zr753  O3804     1.85097      .   S
    N3803  O3805     1.09608      .   S
    Zr503  O3805     1.85081  1_655   S
    N3806  O3807     1.06050      .   S
    Zr1473 O3807     1.76338      .   S
    N3806  O3808     1.06038      .   S
    Zr1472 O3808     1.76326      .   S
    N3809  O3810     1.07675      .   S
    Zr807  O3810     1.81705      .   S
    N3809  O3811     1.07504      .   S
    Zr81   O3811     1.81430      .   S
    N3812  O3813     1.09121      .   S
    Zr1461 O3813     1.84297      .   S
    N3812  O3814     1.07552      .   S
    Zr1462 O3814     1.78813      .   S
    N3815  O3816     1.07552      .   S
    Zr1420 O3816     1.78813      .   S
    N3815  O3817     1.09120      .   S
    Zr1419 O3817     1.84296      .   S
    N3818  O3819     1.07549      .   S
    Zr1456 O3819     1.78811      .   S
    N3818  O3820     1.09097      .   S
    Zr1455 O3820     1.84273      .   S
    N3821  O3822     1.06038      .   S
    Zr1468 O3822     1.76326      .   S
    N3821  O3823     1.06050      .   S
    Zr1469 O3823     1.76338      .   S
    N3824  O3825     1.07552      .   S
    Zr1432 O3825     1.78813      .   S
    N3824  O3826     1.09121      .   S
    Zr1431 O3826     1.84297      .   S
    N3827  O3828     1.09507      .   S
    Zr829  O3828     1.84942      .   S
    N3827  O3829     1.09480      .   S
    Zr830  O3829     1.84858      .   S
    N3830  O3831     1.08378      .   S
    Zr952  O3831     1.82958      .   S
    N3830  O3832     1.08378      .   S
    Zr177  O3832     1.82958      .   S
    N3833  O3834     1.09518      .   S
    Zr929  O3834     1.84953      .   S
    N3833  O3835     1.09470      .   S
    Zr930  O3835     1.84847      .   S
    N3836  O3837     1.09601      .   S
    Zr1078 O3837     1.85089      .   S
    N3836  O3838     1.09601      .   S
    Zr228  O3838     1.85089      .   S
    N3839  O3840     1.09601      .   S
    Zr928  O3840     1.85088      .   S
    N3839  O3841     1.09601      .   S
    Zr3    O3841     1.85088      .   S
    N3842  O3843     1.07667      .   S
    Zr482  O3843     1.81683      .   S
    N3842  O3844     1.07506      .   S
    Zr1156 O3844     1.81432      .   S
    N3845  O3846     1.09601      .   S
    Zr603  O3846     1.85088  1_565   S
    N3845  O3847     1.09601      .   S
    Zr328  O3847     1.85088  1_655   S
    N3848  O3849     1.07640      .   S
    Zr1406 O3849     1.81650      .   S
    N3848  O3850     1.07590      .   S
    Zr1405 O3850     1.81586      .   S
    N3851  O3852     1.09518      .   S
    Zr454  O3852     1.84953      .   S
    N3851  O3853     1.09470      .   S
    Zr455  O3853     1.84847      .   S
    N3854  O3855     1.07592      .   S
    Zr1351 O3855     1.81588      .   S
    N3854  O3856     1.07638      .   S
    Zr1352 O3856     1.81683      .   S
    N3857  O3858     1.09120      .   S
    Zr1341 O3858     1.84296      .   S
    N3857  O3859     1.07552      .   S
    Zr1342 O3859     1.78813      .   S
    N3860  O3861     1.07685      .   S
    Zr782  O3861     1.81729      .   S
    N3860  O3862     1.07501      .   S
    Zr256  O3862     1.81426      .   S
    N3863  O3864     1.09470      .   S
    Zr1055 O3864     1.84847      .   S
    N3863  O3865     1.09518      .   S
    Zr1054 O3865     1.84953      .   S
    N3866  O3867     1.09601      .   S
    Zr728  O3867     1.85089  1_565   S
    N3866  O3868     1.09601      .   S
    Zr553  O3868     1.85089  1_556   S
    N3869  O3870     1.08378      .   S
    Zr102  O3870     1.82956      .   S
    N3869  O3871     1.08378      .   S
    Zr927  O3871     1.82956      .   S
    N3872  O3873     1.07506      .   S
    Zr906  O3873     1.81432      .   S
    N3872  O3874     1.07667      .   S
    Zr557  O3874     1.81683      .   S
    N3875  O3876     1.07552      .   S
    Zr1450 O3876     1.78813      .   S
    N3875  O3877     1.09120      .   S
    Zr1449 O3877     1.84296      .   S
    N3878  O3879     1.09593      .   S
    Zr1128 O3879     1.85097      .   S
    N3878  O3880     1.09608      .   S
    Zr178  O3880     1.85081      .   S
    N3881  O3882     1.09513      .   S
    Zr154  O3882     1.84948      .   S
    N3881  O3883     1.09474      .   S
    Zr155  O3883     1.84852      .   S
    N3884  O3885     1.07506      .   S
    Zr456  O3885     1.81432  1_556   S
    N3884  O3886     1.07667      .   S
    Zr982  O3886     1.81683      .   S
    N3887  O3888     1.07675      .   S
    Zr332  O3888     1.81705      .   S
    N3887  O3889     1.07504      .   S
    Zr1031 O3889     1.81430      .   S
    N3890  O3891     1.07501      .   S
    Zr1131 O3891     1.81426      .   S
    N3890  O3892     1.07685      .   S
    Zr432  O3892     1.81729      .   S
    N3893  O3894     1.07506      .   S
    Zr1056 O3894     1.81432      .   S
    N3893  O3895     1.07667      .   S
    Zr382  O3895     1.81683      .   S
    N3896  O3897     1.09601      .   S
    Zr1153 O3897     1.85089      .   S
    N3896  O3898     1.09601      .   S
    Zr128  O3898     1.85089      .   S
    N3899  O3900     1.07640      .   S
    Zr1382 O3900     1.81650      .   S
    N3899  O3901     1.07590      .   S
    Zr1381 O3901     1.81586      .   S
    N3902  O3903     1.09097      .   S
    Zr1437 O3903     1.84273      .   S
    N3902  O3904     1.07549      .   S
    Zr1438 O3904     1.78811      .   S
    N3905  O3906     1.09474      .   S
    Zr855  O3906     1.84852      .   S
    N3905  O3907     1.09513      .   S
    Zr854  O3907     1.84948      .   S
    N3908  O3909     1.07593      .   S
    Zr1429 O3909     1.81589      .   S
    N3908  O3910     1.07637      .   S
    Zr1430 O3910     1.81698      .   S
    N3911  O3912     1.07667      .   S
    Zr307  O3912     1.81683      .   S
    N3911  O3913     1.07506      .   S
    Zr1081 O3913     1.81432      .   S
    N3914  O3915     1.09480      .   S
    Zr230  O3915     1.84858      .   S
    N3914  O3916     1.09507      .   S
    Zr229  O3916     1.84942      .   S
    N3917  O3918     1.08378      .   S
    Zr577  O3918     1.82956      .   S
    N3917  O3919     1.08378      .   S
    Zr802  O3919     1.82956      .   S
    N3920  O3921     1.08381      .   S
    Zr27   O3921     1.82991      .   S
    N3920  O3922     1.08375      .   S
    Zr1002 O3922     1.82922      .   S
    N3923  O3924     1.06044      .   S
    Zr1470 O3924     1.76332      .   S
    N3923  O3925     1.06044      .   S
    Zr1471 O3925     1.76332      .   S
    N3926  O3927     1.06044      .   S
    Zr1475 O3927     1.76332      .   S
    N3926  O3928     1.06044      .   S
    Zr1474 O3928     1.76332      .   S
    N3929  O3930     1.09120      .   S
    Zr1365 O3930     1.84296      .   S
    N3929  O3931     1.07552      .   S
    Zr1366 O3931     1.78813      .   S
    N3932  O3933     1.09120      .   S
    Zr1389 O3933     1.84296      .   S
    N3932  O3934     1.07552      .   S
    Zr1390 O3934     1.78813      .   S
    N3935  O3936     1.09507      .   S
    Zr179  O3936     1.84943      .   S
    N3935  O3937     1.09480      .   S
    Zr180  O3937     1.84858      .   S
    N3938  O3939     1.09474      .   S
    Zr1130 O3939     1.84852      .   S
    N3938  O3940     1.09513      .   S
    Zr1129 O3940     1.84948      .   S
    N3941  O3942     1.09513      .   S
    Zr1004 O3942     1.84948      .   S
    N3941  O3943     1.09474      .   S
    Zr1005 O3943     1.84852      .   S
