# CIF file generated by openbabel 2.4.90, see http://openbabel.sf.net
data_I
_chemical_name_common ''
_cell_length_a 62.8399
_cell_length_b 62.8399
_cell_length_c 62.8399
_cell_angle_alpha 60
_cell_angle_beta 60
_cell_angle_gamma 60
_space_group_name_H-M_alt 'P 1'
_space_group_name_Hall 'P 1'
loop_
    _symmetry_equiv_pos_as_xyz
    x,y,z
loop_
    _atom_site_label
    _atom_site_type_symbol
    _atom_site_fract_x
    _atom_site_fract_y
    _atom_site_fract_z
    _atom_site_occupancy
    C0      C    0.42240   0.46092   0.54723   1.000
    C1      C    0.36102   0.39955   0.51247   1.000
    C2      C    0.37603   0.41455   0.50403   1.000
    C3      C    0.31679   0.40521   0.42746   1.000
    C4      C    0.31227   0.38220   0.47489   1.000
    C5      C    0.31089   0.40641   0.45167   1.000
    C6      C    0.30458   0.43068   0.45304   1.000
    C7      C    0.18594   0.20837   0.64843   1.000
    C8      C    0.15936   0.25305   0.62501   1.000
    C9      C    0.18218   0.22795   0.62494   1.000
    C10     C    0.20145   0.22390   0.60143   1.000
    C11     C    0.16297   0.26799   0.70516   1.000
    C12     C    0.14404   0.29961   0.66831   1.000
    C13     C    0.15870   0.29240   0.68530   1.000
    C14     C    0.17681   0.26152   0.72083   1.000
    C15     C    0.20310   0.27199   0.73261   1.000
    C16     C    0.18675   0.27927   0.71726   1.000
    C17     C    0.16851   0.31016   0.68190   1.000
    C18     C    0.18222   0.30374   0.69757   1.000
    C19     C    0.28425   0.32264   0.62099   1.000
    C20     C    0.27520   0.31363   0.64841   1.000
    C21     C    0.32224   0.24194   0.53632   1.000
    C22     C    0.34166   0.27304   0.52830   1.000
    C23     C    0.33972   0.24672   0.53987   1.000
    C24     C    0.31889   0.21750   0.54938   1.000
    C25     C    0.07796   0.33257   0.66808   1.000
    C26     C    0.33299   0.19747   0.56615   1.000
    C27     C    0.35438   0.22638   0.55592   1.000
    C28     C    0.35111   0.20213   0.56881   1.000
    O29     O    0.42559   0.46103   0.50214   1.000
    O30     O    0.33327   0.36883   0.52525   1.000
    O31     O    0.40801   0.44352   0.48477   1.000
    O32     O    0.30637   0.38370   0.49673   1.000
    O33     O    0.36082   0.31969   0.47176   1.000
    O34     O    0.14341   0.25626   0.64681   1.000
    O35     O    0.09285   0.28098   0.64670   1.000
    O36     O    0.13396   0.28390   0.67277   1.000
    O37     O    0.14205   0.32149   0.65000   1.000
    O38     O    0.20797   0.24927   0.74940   1.000
    O39     O    0.21218   0.28867   0.72771   1.000
    O40     O    0.30379   0.33926   0.56556   1.000
    O41     O    0.25801   0.29346   0.70249   1.000
    O42     O    0.33112   0.29016   0.51111   1.000
    O43     O    0.27746   0.35332   0.53657   1.000
    O44     O    0.08410   0.30855   0.67227   1.000
    O45     O    0.15737   0.33907   0.59943   1.000
    H46     H    0.40729   0.47622   0.53902   1.000
    H47     H    0.34037   0.40917   0.51532   1.000
    H48     H    0.36649   0.43529   0.50073   1.000
    H49     H    0.32174   0.38695   0.42554   1.000
    H50     H    0.29999   0.43236   0.47131   1.000
    H51     H    0.17176   0.21061   0.66698   1.000
    H52     H    0.19950   0.23842   0.58290   1.000
    H53     H    0.15579   0.25374   0.70849   1.000
    H54     H    0.17998   0.24241   0.73557   1.000
    H55     H    0.16567   0.32917   0.66698   1.000
    H56     H    0.18961   0.31797   0.69394   1.000
    H57     H    0.27242   0.34107   0.61090   1.000
    H58     H    0.25665   0.32549   0.65835   1.000
    H59     H    0.31059   0.25730   0.52408   1.000
    H60     H    0.30483   0.21452   0.54690   1.000
    H61     H    0.36814   0.22928   0.55895   1.000
    H62     H    0.36260   0.18711   0.58131   1.000
    C63     C    0.46092   0.42240   0.56944   1.000
    C64     C    0.39955   0.36102   0.72696   1.000
    C65     C    0.41455   0.37603   0.70539   1.000
    C66     C    0.40521   0.31679   0.85054   1.000
    C67     C    0.38220   0.31227   0.83063   1.000
    C68     C    0.40641   0.31089   0.83104   1.000
    C69     C    0.43068   0.30458   0.81170   1.000
    C70     C    0.20837   0.18594   0.95726   1.000
    C71     C    0.25305   0.15936   0.96258   1.000
    C72     C    0.22795   0.18218   0.96494   1.000
    C73     C    0.22390   0.20145   0.97322   1.000
    C74     C    0.26799   0.16297   0.86389   1.000
    C75     C    0.29961   0.14404   0.88804   1.000
    C76     C    0.29240   0.15870   0.86360   1.000
    C77     C    0.26152   0.17681   0.84085   1.000
    C78     C    0.27199   0.20310   0.79230   1.000
    C79     C    0.27927   0.18675   0.81672   1.000
    C80     C    0.31016   0.16851   0.83943   1.000
    C81     C    0.30374   0.18222   0.81647   1.000
    C82     C    0.32264   0.28425   0.77212   1.000
    C83     C    0.31363   0.27520   0.76276   1.000
    C84     C    0.24194   0.32224   0.89950   1.000
    C85     C    0.27304   0.34166   0.85700   1.000
    C86     C    0.24672   0.33972   0.87369   1.000
    C87     C    0.21750   0.31889   0.91423   1.000
    C88     C    0.33257   0.07796   0.92138   1.000
    C89     C    0.19747   0.33299   0.90339   1.000
    C90     C    0.22638   0.35438   0.86331   1.000
    C91     C    0.20213   0.35111   0.87794   1.000
    O92     O    0.46103   0.42559   0.61124   1.000
    O93     O    0.36883   0.33327   0.77265   1.000
    O94     O    0.44352   0.40801   0.66370   1.000
    O95     O    0.38370   0.30637   0.81320   1.000
    C96     C    0.70539   0.50403   0.41455   1.000
    C97     C    0.85054   0.42746   0.40521   1.000
    C98     C    0.83063   0.47489   0.38220   1.000
    O99     O    0.31969   0.36082   0.84773   1.000
    O100    O    0.25626   0.14341   0.95352   1.000
    O101    O    0.28098   0.09285   0.97946   1.000
    O102    O    0.28390   0.13396   0.90937   1.000
    O103    O    0.32149   0.14205   0.88647   1.000
    O104    O    0.24927   0.20797   0.79336   1.000
    O105    O    0.28867   0.21218   0.77143   1.000
    O106    O    0.33926   0.30379   0.79140   1.000
    O107    O    0.29346   0.25801   0.74604   1.000
    O108    O    0.29016   0.33112   0.86762   1.000
    O109    O    0.35332   0.27746   0.83264   1.000
    O110    O    0.30855   0.08410   0.93508   1.000
    O111    O    0.33907   0.15737   0.90414   1.000
    H112    H    0.47622   0.40729   0.57747   1.000
    H113    H    0.40917   0.34037   0.73515   1.000
    H114    H    0.43529   0.36649   0.69749   1.000
    H115    H    0.38695   0.32174   0.86577   1.000
    H116    H    0.43236   0.29999   0.79634   1.000
    H117    H    0.21061   0.17176   0.95064   1.000
    H118    H    0.23842   0.19950   0.97918   1.000
    H119    H    0.25374   0.15579   0.88199   1.000
    H120    H    0.24241   0.17998   0.84203   1.000
    H121    H    0.32917   0.16567   0.83819   1.000
    H122    H    0.31797   0.18961   0.79849   1.000
    H123    H    0.34107   0.27242   0.77561   1.000
    H124    H    0.32549   0.25665   0.75951   1.000
    H125    H    0.25730   0.31059   0.90802   1.000
    H126    H    0.21452   0.30483   0.93376   1.000
    H127    H    0.90802   0.52408   0.25730   1.000
    H128    H    0.93376   0.54690   0.21452   1.000
    H129    H    0.84363   0.55895   0.22928   1.000
    H130    H    0.86898   0.58131   0.18711   1.000
    H131    H    0.22928   0.36814   0.84363   1.000
    H132    H    0.18711   0.36260   0.86898   1.000
    C133    C    0.54723   0.56944   0.42240   1.000
    C134    C    0.51247   0.72696   0.36102   1.000
    C135    C    0.50403   0.70539   0.37603   1.000
    C136    C    0.42746   0.85054   0.31679   1.000
    C137    C    0.47489   0.83063   0.31227   1.000
    C138    C    0.45167   0.83104   0.31089   1.000
    C139    C    0.45304   0.81170   0.30458   1.000
    C140    C    0.64843   0.95726   0.18594   1.000
    C141    C    0.62501   0.96258   0.15936   1.000
    C142    C    0.62494   0.96494   0.18218   1.000
    C143    C    0.60143   0.97322   0.20145   1.000
    C144    C    0.70516   0.86389   0.16297   1.000
    C145    C    0.66831   0.88804   0.14404   1.000
    C146    C    0.68530   0.86360   0.15870   1.000
    C147    C    0.72083   0.84085   0.17681   1.000
    C148    C    0.73261   0.79230   0.20310   1.000
    C149    C    0.71726   0.81672   0.18675   1.000
    C150    C    0.68190   0.83943   0.16851   1.000
    C151    C    0.69757   0.81647   0.18222   1.000
    C152    C    0.62099   0.77212   0.28425   1.000
    C153    C    0.64841   0.76276   0.27520   1.000
    C154    C    0.53632   0.89950   0.32224   1.000
    C155    C    0.52830   0.85700   0.34166   1.000
    C156    C    0.53987   0.87369   0.33972   1.000
    C157    C    0.54938   0.91423   0.31889   1.000
    C158    C    0.66808   0.92138   0.07796   1.000
    C159    C    0.56615   0.90339   0.33299   1.000
    C160    C    0.55592   0.86331   0.35438   1.000
    C161    C    0.56881   0.87794   0.35111   1.000
    O162    O    0.50214   0.61124   0.42559   1.000
    O163    O    0.52525   0.77265   0.33327   1.000
    O164    O    0.48477   0.66370   0.40801   1.000
    O165    O    0.49673   0.81320   0.30637   1.000
    O166    O    0.47176   0.84773   0.36082   1.000
    O167    O    0.64681   0.95352   0.14341   1.000
    O168    O    0.64670   0.97946   0.09285   1.000
    O169    O    0.67277   0.90937   0.13396   1.000
    O170    O    0.65000   0.88647   0.14205   1.000
    O171    O    0.74940   0.79336   0.20797   1.000
    O172    O    0.72771   0.77143   0.21218   1.000
    O173    O    0.56556   0.79140   0.30379   1.000
    O174    O    0.70249   0.74604   0.25801   1.000
    O175    O    0.51111   0.86762   0.33112   1.000
    O176    O    0.53657   0.83264   0.27746   1.000
    O177    O    0.67227   0.93508   0.08410   1.000
    O178    O    0.59943   0.90414   0.15737   1.000
    H179    H    0.53902   0.57747   0.40729   1.000
    H180    H    0.51532   0.73515   0.34037   1.000
    H181    H    0.50073   0.69749   0.36649   1.000
    H182    H    0.42554   0.86577   0.32174   1.000
    H183    H    0.47131   0.79634   0.29999   1.000
    H184    H    0.66698   0.95064   0.17176   1.000
    H185    H    0.58290   0.97918   0.19950   1.000
    H186    H    0.70849   0.88199   0.15579   1.000
    H187    H    0.73557   0.84203   0.17998   1.000
    H188    H    0.66698   0.83819   0.16567   1.000
    H189    H    0.69394   0.79849   0.18961   1.000
    H190    H    0.61090   0.77561   0.27242   1.000
    H191    H    0.65835   0.75951   0.25665   1.000
    H192    H    0.52408   0.90802   0.31059   1.000
    H193    H    0.54690   0.93376   0.30483   1.000
    H194    H    0.55895   0.84363   0.36814   1.000
    H195    H    0.58131   0.86898   0.36260   1.000
    C196    C    0.56944   0.54723   0.46092   1.000
    C197    C    0.72696   0.51247   0.39955   1.000
    C198    C    0.31089   0.45167   0.83104   1.000
    C199    C    0.30458   0.45304   0.81170   1.000
    C200    C    0.18594   0.64843   0.95726   1.000
    C201    C    0.15936   0.62501   0.96258   1.000
    C202    C    0.18218   0.62494   0.96494   1.000
    C203    C    0.20145   0.60143   0.97322   1.000
    C204    C    0.83104   0.45167   0.40641   1.000
    C205    C    0.81170   0.45304   0.43068   1.000
    C206    C    0.95726   0.64843   0.20837   1.000
    C207    C    0.96258   0.62501   0.25305   1.000
    C208    C    0.96494   0.62494   0.22795   1.000
    C209    C    0.97322   0.60143   0.22390   1.000
    C210    C    0.86389   0.70516   0.26799   1.000
    C211    C    0.88804   0.66831   0.29961   1.000
    C212    C    0.86360   0.68530   0.29240   1.000
    C213    C    0.84085   0.72083   0.26152   1.000
    C214    C    0.79230   0.73261   0.27199   1.000
    C215    C    0.81672   0.71726   0.27927   1.000
    C216    C    0.83943   0.68190   0.31016   1.000
    C217    C    0.81647   0.69757   0.30374   1.000
    C218    C    0.77212   0.62099   0.32264   1.000
    C219    C    0.76276   0.64841   0.31363   1.000
    C220    C    0.89950   0.53632   0.24194   1.000
    C221    C    0.85700   0.52830   0.27304   1.000
    C222    C    0.87369   0.53987   0.24672   1.000
    C223    C    0.91423   0.54938   0.21750   1.000
    C224    C    0.92138   0.66808   0.33257   1.000
    C225    C    0.90339   0.56615   0.19747   1.000
    C226    C    0.86331   0.55592   0.22638   1.000
    C227    C    0.87794   0.56881   0.20213   1.000
    O228    O    0.61124   0.50214   0.46103   1.000
    O229    O    0.77265   0.52525   0.36883   1.000
    O230    O    0.66370   0.48477   0.44352   1.000
    O231    O    0.81320   0.49673   0.38370   1.000
    O232    O    0.84773   0.47176   0.31969   1.000
    O233    O    0.95352   0.64681   0.25626   1.000
    O234    O    0.97946   0.64670   0.28098   1.000
    O235    O    0.90937   0.67277   0.28390   1.000
    O236    O    0.88647   0.65000   0.32149   1.000
    O237    O    0.79336   0.74940   0.24927   1.000
    O238    O    0.77143   0.72771   0.28867   1.000
    O239    O    0.79140   0.56556   0.33926   1.000
    O240    O    0.74604   0.70249   0.29346   1.000
    O241    O    0.86762   0.51111   0.29016   1.000
    O242    O    0.83264   0.53657   0.35332   1.000
    O243    O    0.93508   0.67227   0.30855   1.000
    O244    O    0.90414   0.59943   0.33907   1.000
    H245    H    0.57747   0.53902   0.47622   1.000
    H246    H    0.73515   0.51532   0.40917   1.000
    H247    H    0.69749   0.50073   0.43529   1.000
    H248    H    0.86577   0.42554   0.38695   1.000
    H249    H    0.79634   0.47131   0.43236   1.000
    H250    H    0.95064   0.66698   0.21061   1.000
    H251    H    0.97918   0.58290   0.23842   1.000
    H252    H    0.88199   0.70849   0.25374   1.000
    H253    H    0.84203   0.73557   0.24241   1.000
    H254    H    0.83819   0.66698   0.32917   1.000
    H255    H    0.79849   0.69394   0.31797   1.000
    H256    H    0.77561   0.61090   0.34107   1.000
    H257    H    0.75951   0.65835   0.32549   1.000
    H258    H    0.32917   0.83819   0.66698   1.000
    H259    H    0.31797   0.79849   0.69394   1.000
    H260    H    0.34107   0.77561   0.61090   1.000
    H261    H    0.32549   0.75951   0.65835   1.000
    H262    H    0.25730   0.90802   0.52408   1.000
    H263    H    0.21452   0.93376   0.54690   1.000
    H264    H    0.22928   0.84363   0.55895   1.000
    H265    H    0.18711   0.86898   0.58131   1.000
    C266    C    0.54723   0.42240   0.46092   1.000
    C267    C    0.51247   0.36102   0.39955   1.000
    C268    C    0.50403   0.37603   0.41455   1.000
    C269    C    0.42746   0.31679   0.40521   1.000
    C270    C    0.47489   0.31227   0.38220   1.000
    C271    C    0.45167   0.31089   0.40641   1.000
    C272    C    0.45304   0.30458   0.43068   1.000
    C273    C    0.64843   0.18594   0.20837   1.000
    C274    C    0.62501   0.15936   0.25305   1.000
    C275    C    0.62494   0.18218   0.22795   1.000
    C276    C    0.60143   0.20145   0.22390   1.000
    C277    C    0.70516   0.16297   0.26799   1.000
    C278    C    0.66831   0.14404   0.29961   1.000
    C279    C    0.68530   0.15870   0.29240   1.000
    C280    C    0.72083   0.17681   0.26152   1.000
    C281    C    0.73261   0.20310   0.27199   1.000
    C282    C    0.71726   0.18675   0.27927   1.000
    C283    C    0.68190   0.16851   0.31016   1.000
    C284    C    0.69757   0.18222   0.30374   1.000
    C285    C    0.62099   0.28425   0.32264   1.000
    C286    C    0.64841   0.27520   0.31363   1.000
    C287    C    0.53632   0.32224   0.24194   1.000
    C288    C    0.52830   0.34166   0.27304   1.000
    C289    C    0.53987   0.33972   0.24672   1.000
    C290    C    0.54938   0.31889   0.21750   1.000
    C291    C    0.66808   0.07796   0.33257   1.000
    C292    C    0.56615   0.33299   0.19747   1.000
    C293    C    0.55592   0.35438   0.22638   1.000
    C294    C    0.56881   0.35111   0.20213   1.000
    O295    O    0.50214   0.42559   0.46103   1.000
    O296    O    0.52525   0.33327   0.36883   1.000
    O297    O    0.48477   0.40801   0.44352   1.000
    O298    O    0.49673   0.30637   0.38370   1.000
    O299    O    0.47176   0.36082   0.31969   1.000
    O300    O    0.64681   0.14341   0.25626   1.000
    O301    O    0.64670   0.09285   0.28098   1.000
    O302    O    0.67277   0.13396   0.28390   1.000
    O303    O    0.65000   0.14205   0.32149   1.000
    O304    O    0.74940   0.20797   0.24927   1.000
    O305    O    0.72771   0.21218   0.28867   1.000
    O306    O    0.56556   0.30379   0.33926   1.000
    O307    O    0.70249   0.25801   0.29346   1.000
    O308    O    0.51111   0.33112   0.29016   1.000
    O309    O    0.53657   0.27746   0.35332   1.000
    O310    O    0.67227   0.08410   0.30855   1.000
    O311    O    0.59943   0.15737   0.33907   1.000
    H312    H    0.53902   0.40729   0.47622   1.000
    H313    H    0.51532   0.34037   0.40917   1.000
    H314    H    0.50073   0.36649   0.43529   1.000
    H315    H    0.42554   0.32174   0.38695   1.000
    H316    H    0.47131   0.29999   0.43236   1.000
    H317    H    0.66698   0.17176   0.21061   1.000
    H318    H    0.58290   0.19950   0.23842   1.000
    H319    H    0.70849   0.15579   0.25374   1.000
    H320    H    0.73557   0.17998   0.24241   1.000
    H321    H    0.66698   0.16567   0.32917   1.000
    H322    H    0.69394   0.18961   0.31797   1.000
    H323    H    0.61090   0.27242   0.34107   1.000
    H324    H    0.65835   0.25665   0.32549   1.000
    H325    H    0.52408   0.31059   0.25730   1.000
    H326    H    0.54690   0.30483   0.21452   1.000
    H327    H    0.55895   0.36814   0.22928   1.000
    H328    H    0.58131   0.36260   0.18711   1.000
    C329    C    0.56944   0.46092   0.42240   1.000
    C330    C    0.72696   0.39955   0.36102   1.000
    C331    C    0.70539   0.41455   0.37603   1.000
    C332    C    0.85054   0.40521   0.31679   1.000
    C333    C    0.83063   0.38220   0.31227   1.000
    C334    C    0.83104   0.40641   0.31089   1.000
    C335    C    0.81170   0.43068   0.30458   1.000
    C336    C    0.95726   0.20837   0.18594   1.000
    C337    C    0.96258   0.25305   0.15936   1.000
    C338    C    0.96494   0.22795   0.18218   1.000
    C339    C    0.97322   0.22390   0.20145   1.000
    C340    C    0.86389   0.26799   0.16297   1.000
    C341    C    0.88804   0.29961   0.14404   1.000
    C342    C    0.86360   0.29240   0.15870   1.000
    C343    C    0.84085   0.26152   0.17681   1.000
    C344    C    0.79230   0.27199   0.20310   1.000
    C345    C    0.81672   0.27927   0.18675   1.000
    C346    C    0.83943   0.31016   0.16851   1.000
    C347    C    0.81647   0.30374   0.18222   1.000
    C348    C    0.77212   0.32264   0.28425   1.000
    C349    C    0.76276   0.31363   0.27520   1.000
    C350    C    0.89950   0.24194   0.32224   1.000
    C351    C    0.85700   0.27304   0.34166   1.000
    C352    C    0.87369   0.24672   0.33972   1.000
    C353    C    0.91423   0.21750   0.31889   1.000
    C354    C    0.92138   0.33257   0.07796   1.000
    C355    C    0.90339   0.19747   0.33299   1.000
    C356    C    0.86331   0.22638   0.35438   1.000
    C357    C    0.87794   0.20213   0.35111   1.000
    O358    O    0.61124   0.46103   0.42559   1.000
    O359    O    0.77265   0.36883   0.33327   1.000
    O360    O    0.66370   0.44352   0.40801   1.000
    O361    O    0.81320   0.38370   0.30637   1.000
    O362    O    0.84773   0.31969   0.36082   1.000
    O363    O    0.95352   0.25626   0.14341   1.000
    O364    O    0.97946   0.28098   0.09285   1.000
    O365    O    0.90937   0.28390   0.13396   1.000
    O366    O    0.88647   0.32149   0.14205   1.000
    O367    O    0.79336   0.24927   0.20797   1.000
    O368    O    0.77143   0.28867   0.21218   1.000
    O369    O    0.79140   0.33926   0.30379   1.000
    O370    O    0.74604   0.29346   0.25801   1.000
    O371    O    0.86762   0.29016   0.33112   1.000
    O372    O    0.83264   0.35332   0.27746   1.000
    O373    O    0.93508   0.30855   0.08410   1.000
    O374    O    0.90414   0.33907   0.15737   1.000
    H375    H    0.57747   0.47622   0.40729   1.000
    H376    H    0.73515   0.40917   0.34037   1.000
    H377    H    0.69749   0.43529   0.36649   1.000
    H378    H    0.86577   0.38695   0.32174   1.000
    H379    H    0.79634   0.43236   0.29999   1.000
    H380    H    0.95064   0.21061   0.17176   1.000
    H381    H    0.97918   0.23842   0.19950   1.000
    H382    H    0.88199   0.25374   0.15579   1.000
    H383    H    0.84203   0.24241   0.17998   1.000
    H384    H    0.83819   0.32917   0.16567   1.000
    H385    H    0.79849   0.31797   0.18961   1.000
    H386    H    0.77561   0.34107   0.27242   1.000
    H387    H    0.75951   0.32549   0.25665   1.000
    H388    H    0.90802   0.25730   0.31059   1.000
    H389    H    0.93376   0.21452   0.30483   1.000
    H390    H    0.84363   0.22928   0.36814   1.000
    H391    H    0.86898   0.18711   0.36260   1.000
    C392    C    0.42240   0.54723   0.56944   1.000
    C393    C    0.36102   0.51247   0.72696   1.000
    C394    C    0.37603   0.50403   0.70539   1.000
    C395    C    0.31679   0.42746   0.85054   1.000
    C396    C    0.31227   0.47489   0.83063   1.000
    C397    C    0.08703   0.98201   0.38611   1.000
    C398    C    0.10596   0.95039   0.36196   1.000
    C399    C    0.09130   0.95760   0.38640   1.000
    C400    C    0.07319   0.98848   0.40915   1.000
    C401    C    0.04690   0.97801   0.45770   1.000
    C402    C    0.06325   0.97073   0.43328   1.000
    C403    C    0.08149   0.93984   0.41057   1.000
    C404    C    0.06778   0.94626   0.43353   1.000
    C405    C    0.96575   0.92736   0.47788   1.000
    C406    C    0.97480   0.93637   0.48724   1.000
    C407    C    0.92776   0.00806   0.35050   1.000
    C408    C    0.90834   0.97696   0.39300   1.000
    C409    C    0.16297   0.70516   0.86389   1.000
    C410    C    0.14404   0.66831   0.88804   1.000
    C411    C    0.15870   0.68530   0.86360   1.000
    C412    C    0.17681   0.72083   0.84085   1.000
    C413    C    0.20310   0.73261   0.79230   1.000
    C414    C    0.18675   0.71726   0.81672   1.000
    C415    C    0.16851   0.68190   0.83943   1.000
    C416    C    0.18222   0.69757   0.81647   1.000
    C417    C    0.28425   0.62099   0.77212   1.000
    C418    C    0.27520   0.64841   0.76276   1.000
    C419    C    0.32224   0.53632   0.89950   1.000
    C420    C    0.34166   0.52830   0.85700   1.000
    C421    C    0.33972   0.53987   0.87369   1.000
    C422    C    0.31889   0.54938   0.91423   1.000
    C423    C    0.07796   0.66808   0.92138   1.000
    C424    C    0.33299   0.56615   0.90339   1.000
    C425    C    0.35438   0.55592   0.86331   1.000
    C426    C    0.35111   0.56881   0.87794   1.000
    O427    O    0.42559   0.50214   0.61124   1.000
    O428    O    0.33327   0.52525   0.77265   1.000
    O429    O    0.40801   0.48477   0.66370   1.000
    O430    O    0.30637   0.49673   0.81320   1.000
    O431    O    0.36082   0.47176   0.84773   1.000
    O432    O    0.14341   0.64681   0.95352   1.000
    O433    O    0.09285   0.64670   0.97946   1.000
    O434    O    0.13396   0.67277   0.90937   1.000
    O435    O    0.14205   0.65000   0.88647   1.000
    O436    O    0.20797   0.74940   0.79336   1.000
    O437    O    0.21218   0.72771   0.77143   1.000
    O438    O    0.30379   0.56556   0.79140   1.000
    O439    O    0.25801   0.70249   0.74604   1.000
    O440    O    0.33112   0.51111   0.86762   1.000
    O441    O    0.27746   0.53657   0.83264   1.000
    O442    O    0.08410   0.67227   0.93508   1.000
    O443    O    0.15737   0.59943   0.90414   1.000
    H444    H    0.40729   0.53902   0.57747   1.000
    H445    H    0.34037   0.51532   0.73515   1.000
    H446    H    0.36649   0.50073   0.69749   1.000
    H447    H    0.32174   0.42554   0.86577   1.000
    H448    H    0.29999   0.47131   0.79634   1.000
    H449    H    0.17176   0.66698   0.95064   1.000
    H450    H    0.19950   0.58290   0.97918   1.000
    H451    H    0.15579   0.70849   0.88199   1.000
    H452    H    0.17998   0.73557   0.84203   1.000
    H453    H    0.16567   0.66698   0.83819   1.000
    H454    H    0.18961   0.69394   0.79849   1.000
    H455    H    0.27242   0.61090   0.77561   1.000
    H456    H    0.25665   0.65835   0.75951   1.000
    H457    H    0.31059   0.52408   0.90802   1.000
    H458    H    0.30483   0.54690   0.93376   1.000
    H459    H    0.36814   0.55895   0.84363   1.000
    H460    H    0.36260   0.58131   0.86898   1.000
    C461    C    0.46092   0.56944   0.54723   1.000
    C462    C    0.39955   0.72696   0.51247   1.000
    C463    C    0.41455   0.70539   0.50403   1.000
    C464    C    0.40521   0.85054   0.42746   1.000
    C465    C    0.38220   0.83063   0.47489   1.000
    C466    C    0.40641   0.83104   0.45167   1.000
    C467    C    0.43068   0.81170   0.45304   1.000
    C468    C    0.20837   0.95726   0.64843   1.000
    C469    C    0.25305   0.96258   0.62501   1.000
    C470    C    0.22795   0.96494   0.62494   1.000
    C471    C    0.22390   0.97322   0.60143   1.000
    C472    C    0.26799   0.86389   0.70516   1.000
    C473    C    0.29961   0.88804   0.66831   1.000
    C474    C    0.29240   0.86360   0.68530   1.000
    C475    C    0.26152   0.84085   0.72083   1.000
    C476    C    0.27199   0.79230   0.73261   1.000
    C477    C    0.27927   0.81672   0.71726   1.000
    C478    C    0.31016   0.83943   0.68190   1.000
    C479    C    0.30374   0.81647   0.69757   1.000
    C480    C    0.32264   0.77212   0.62099   1.000
    C481    C    0.31363   0.76276   0.64841   1.000
    C482    C    0.24194   0.89950   0.53632   1.000
    C483    C    0.27304   0.85700   0.52830   1.000
    C484    C    0.24672   0.87369   0.53987   1.000
    C485    C    0.21750   0.91423   0.54938   1.000
    C486    C    0.33257   0.92138   0.66808   1.000
    C487    C    0.19747   0.90339   0.56615   1.000
    C488    C    0.22638   0.86331   0.55592   1.000
    C489    C    0.20213   0.87794   0.56881   1.000
    O490    O    0.46103   0.61124   0.50214   1.000
    O491    O    0.36883   0.77265   0.52525   1.000
    O492    O    0.44352   0.66370   0.48477   1.000
    O493    O    0.38370   0.81320   0.49673   1.000
    O494    O    0.31969   0.84773   0.47176   1.000
    O495    O    0.25626   0.95352   0.64681   1.000
    O496    O    0.28098   0.97946   0.64670   1.000
    O497    O    0.28390   0.90937   0.67277   1.000
    O498    O    0.32149   0.88647   0.65000   1.000
    O499    O    0.24927   0.79336   0.74940   1.000
    O500    O    0.28867   0.77143   0.72771   1.000
    O501    O    0.33926   0.79140   0.56556   1.000
    O502    O    0.29346   0.74604   0.70249   1.000
    O503    O    0.29016   0.86762   0.51111   1.000
    O504    O    0.35332   0.83264   0.53657   1.000
    O505    O    0.30855   0.93508   0.67227   1.000
    O506    O    0.33907   0.90414   0.59943   1.000
    H507    H    0.47622   0.57747   0.53902   1.000
    H508    H    0.40917   0.73515   0.51532   1.000
    H509    H    0.43529   0.69749   0.50073   1.000
    H510    H    0.38695   0.86577   0.42554   1.000
    H511    H    0.43236   0.79634   0.47131   1.000
    H512    H    0.21061   0.95064   0.66698   1.000
    H513    H    0.23842   0.97918   0.58290   1.000
    H514    H    0.25374   0.88199   0.70849   1.000
    H515    H    0.24241   0.84203   0.73557   1.000
    H516    H    0.51485   0.73468   0.90963   1.000
    H517    H    0.55251   0.74927   0.88351   1.000
    H518    H    0.38423   0.82446   0.92826   1.000
    H519    H    0.45366   0.77869   0.95001   1.000
    H520    H    0.29936   0.58302   0.07824   1.000
    H521    H    0.27082   0.66710   0.05050   1.000
    H522    H    0.36801   0.54151   0.09421   1.000
    H523    H    0.40797   0.51443   0.07002   1.000
    H524    H    0.41181   0.58302   0.08433   1.000
    H525    H    0.45151   0.55606   0.06039   1.000
    H526    H    0.47439   0.63910   0.97758   1.000
    H527    H    0.49049   0.59165   0.99335   1.000
    H528    H    0.34198   0.72592   0.93941   1.000
    H529    H    0.31624   0.70310   0.94517   1.000
    H530    H    0.40637   0.69105   0.88186   1.000
    H531    H    0.38102   0.66869   0.88740   1.000
    C532    C    0.46092   0.54723   0.42240   1.000
    C533    C    0.39955   0.51247   0.36102   1.000
    C534    C    0.41455   0.50403   0.37603   1.000
    C535    C    0.40521   0.42746   0.31679   1.000
    C536    C    0.38220   0.47489   0.31227   1.000
    C537    C    0.40641   0.45167   0.31089   1.000
    C538    C    0.43068   0.45304   0.30458   1.000
    C539    C    0.20837   0.64843   0.18594   1.000
    C540    C    0.25305   0.62501   0.15936   1.000
    C541    C    0.22795   0.62494   0.18218   1.000
    C542    C    0.22390   0.60143   0.20145   1.000
    C543    C    0.26799   0.70516   0.16297   1.000
    C544    C    0.29961   0.66831   0.14404   1.000
    C545    C    0.29240   0.68530   0.15870   1.000
    C546    C    0.26152   0.72083   0.17681   1.000
    C547    C    0.27199   0.73261   0.20310   1.000
    C548    C    0.27927   0.71726   0.18675   1.000
    C549    C    0.31016   0.68190   0.16851   1.000
    C550    C    0.30374   0.69757   0.18222   1.000
    C551    C    0.32264   0.62099   0.28425   1.000
    C552    C    0.31363   0.64841   0.27520   1.000
    C553    C    0.24194   0.53632   0.32224   1.000
    C554    C    0.27304   0.52830   0.34166   1.000
    C555    C    0.24672   0.53987   0.33972   1.000
    C556    C    0.21750   0.54938   0.31889   1.000
    C557    C    0.33257   0.66808   0.07796   1.000
    C558    C    0.19747   0.56615   0.33299   1.000
    C559    C    0.22638   0.55592   0.35438   1.000
    C560    C    0.20213   0.56881   0.35111   1.000
    O561    O    0.46103   0.50214   0.42559   1.000
    O562    O    0.36883   0.52525   0.33327   1.000
    O563    O    0.44352   0.48477   0.40801   1.000
    O564    O    0.38370   0.49673   0.30637   1.000
    O565    O    0.31969   0.47176   0.36082   1.000
    O566    O    0.25626   0.64681   0.14341   1.000
    O567    O    0.28098   0.64670   0.09285   1.000
    O568    O    0.28390   0.67277   0.13396   1.000
    O569    O    0.32149   0.65000   0.14205   1.000
    O570    O    0.24927   0.74940   0.20797   1.000
    O571    O    0.28867   0.72771   0.21218   1.000
    O572    O    0.33926   0.56556   0.30379   1.000
    O573    O    0.29346   0.70249   0.25801   1.000
    O574    O    0.29016   0.51111   0.33112   1.000
    O575    O    0.35332   0.53657   0.27746   1.000
    O576    O    0.30855   0.67227   0.08410   1.000
    O577    O    0.33907   0.59943   0.15737   1.000
    H578    H    0.47622   0.53902   0.40729   1.000
    H579    H    0.40917   0.51532   0.34037   1.000
    H580    H    0.43529   0.50073   0.36649   1.000
    H581    H    0.38695   0.42554   0.32174   1.000
    H582    H    0.43236   0.47131   0.29999   1.000
    H583    H    0.21061   0.66698   0.17176   1.000
    H584    H    0.23842   0.58290   0.19950   1.000
    H585    H    0.25374   0.70849   0.15579   1.000
    H586    H    0.24241   0.73557   0.17998   1.000
    H587    H    0.32917   0.66698   0.16567   1.000
    H588    H    0.31797   0.69394   0.18961   1.000
    H589    H    0.34107   0.61090   0.27242   1.000
    H590    H    0.32549   0.65835   0.25665   1.000
    H591    H    0.25730   0.52408   0.31059   1.000
    H592    H    0.21452   0.54690   0.30483   1.000
    H593    H    0.22928   0.55895   0.36814   1.000
    H594    H    0.18711   0.58131   0.36260   1.000
    C595    C    0.42240   0.56944   0.46092   1.000
    C596    C    0.36102   0.72696   0.39955   1.000
    C597    C    0.37603   0.70539   0.41455   1.000
    C598    C    0.31679   0.85054   0.40521   1.000
    C599    C    0.31227   0.83063   0.38220   1.000
    C600    C    0.31089   0.83104   0.40641   1.000
    C601    C    0.30458   0.81170   0.43068   1.000
    C602    C    0.18594   0.95726   0.20837   1.000
    C603    C    0.15936   0.96258   0.25305   1.000
    C604    C    0.18218   0.96494   0.22795   1.000
    C605    C    0.20145   0.97322   0.22390   1.000
    C606    C    0.16297   0.86389   0.26799   1.000
    C607    C    0.14404   0.88804   0.29961   1.000
    C608    C    0.15870   0.86360   0.29240   1.000
    C609    C    0.17681   0.84085   0.26152   1.000
    C610    C    0.20310   0.79230   0.27199   1.000
    C611    C    0.18675   0.81672   0.27927   1.000
    C612    C    0.16851   0.83943   0.31016   1.000
    C613    C    0.18222   0.81647   0.30374   1.000
    C614    C    0.28425   0.77212   0.32264   1.000
    C615    C    0.27520   0.76276   0.31363   1.000
    C616    C    0.32224   0.89950   0.24194   1.000
    C617    C    0.34166   0.85700   0.27304   1.000
    C618    C    0.33972   0.87369   0.24672   1.000
    C619    C    0.31889   0.91423   0.21750   1.000
    C620    C    0.07796   0.92138   0.33257   1.000
    C621    C    0.33299   0.90339   0.19747   1.000
    C622    C    0.35438   0.86331   0.22638   1.000
    C623    C    0.35111   0.87794   0.20213   1.000
    O624    O    0.42559   0.61124   0.46103   1.000
    O625    O    0.33327   0.77265   0.36883   1.000
    O626    O    0.40801   0.66370   0.44352   1.000
    O627    O    0.30637   0.81320   0.38370   1.000
    O628    O    0.36082   0.84773   0.31969   1.000
    O629    O    0.14341   0.95352   0.25626   1.000
    O630    O    0.09285   0.97946   0.28098   1.000
    O631    O    0.13396   0.90937   0.28390   1.000
    O632    O    0.14205   0.88647   0.32149   1.000
    O633    O    0.20797   0.79336   0.24927   1.000
    O634    O    0.21218   0.77143   0.28867   1.000
    O635    O    0.30379   0.79140   0.33926   1.000
    O636    O    0.25801   0.74604   0.29346   1.000
    O637    O    0.33112   0.86762   0.29016   1.000
    O638    O    0.27746   0.83264   0.35332   1.000
    O639    O    0.08410   0.93508   0.30855   1.000
    O640    O    0.15737   0.90414   0.33907   1.000
    H641    H    0.40729   0.57747   0.47622   1.000
    H642    H    0.34037   0.73515   0.40917   1.000
    H643    H    0.36649   0.69749   0.43529   1.000
    H644    H    0.32174   0.86577   0.38695   1.000
    H645    H    0.29999   0.79634   0.43236   1.000
    H646    H    0.17176   0.95064   0.21061   1.000
    H647    H    0.19950   0.97918   0.23842   1.000
    H648    H    0.15579   0.88199   0.25374   1.000
    H649    H    0.17998   0.84203   0.24241   1.000
    H650    H    0.16567   0.83819   0.32917   1.000
    H651    H    0.18961   0.79849   0.31797   1.000
    H652    H    0.27242   0.77561   0.34107   1.000
    H653    H    0.25665   0.75951   0.32549   1.000
    H654    H    0.31059   0.90802   0.25730   1.000
    H655    H    0.30483   0.93376   0.21452   1.000
    H656    H    0.36814   0.84363   0.22928   1.000
    H657    H    0.36260   0.86898   0.18711   1.000
    C658    C    0.56944   0.42240   0.54723   1.000
    C659    C    0.72696   0.36102   0.51247   1.000
    C660    C    0.70539   0.37603   0.50403   1.000
    C661    C    0.85054   0.31679   0.42746   1.000
    C662    C    0.83063   0.31227   0.47489   1.000
    C663    C    0.83104   0.31089   0.45167   1.000
    C664    C    0.81170   0.30458   0.45304   1.000
    C665    C    0.95726   0.18594   0.64843   1.000
    C666    C    0.96258   0.15936   0.62501   1.000
    C667    C    0.96494   0.18218   0.62494   1.000
    C668    C    0.97322   0.20145   0.60143   1.000
    C669    C    0.86389   0.16297   0.70516   1.000
    C670    C    0.88804   0.14404   0.66831   1.000
    C671    C    0.86360   0.15870   0.68530   1.000
    C672    C    0.84085   0.17681   0.72083   1.000
    C673    C    0.79230   0.20310   0.73261   1.000
    C674    C    0.81672   0.18675   0.71726   1.000
    C675    C    0.83943   0.16851   0.68190   1.000
    C676    C    0.81647   0.18222   0.69757   1.000
    C677    C    0.77212   0.28425   0.62099   1.000
    C678    C    0.76276   0.27520   0.64841   1.000
    C679    C    0.89950   0.32224   0.53632   1.000
    C680    C    0.85700   0.34166   0.52830   1.000
    C681    C    0.87369   0.33972   0.53987   1.000
    C682    C    0.91423   0.31889   0.54938   1.000
    C683    C    0.92138   0.07796   0.66808   1.000
    C684    C    0.90339   0.33299   0.56615   1.000
    C685    C    0.86331   0.35438   0.55592   1.000
    C686    C    0.87794   0.35111   0.56881   1.000
    O687    O    0.61124   0.42559   0.50214   1.000
    O688    O    0.77265   0.33327   0.52525   1.000
    O689    O    0.66370   0.40801   0.48477   1.000
    O690    O    0.81320   0.30637   0.49673   1.000
    O691    O    0.84773   0.36082   0.47176   1.000
    O692    O    0.95352   0.14341   0.64681   1.000
    O693    O    0.97946   0.09285   0.64670   1.000
    O694    O    0.90937   0.13396   0.67277   1.000
    O695    O    0.88647   0.14205   0.65000   1.000
    O696    O    0.79336   0.20797   0.74940   1.000
    O697    O    0.77143   0.21218   0.72771   1.000
    O698    O    0.79140   0.30379   0.56556   1.000
    O699    O    0.74604   0.25801   0.70249   1.000
    O700    O    0.86762   0.33112   0.51111   1.000
    O701    O    0.83264   0.27746   0.53657   1.000
    O702    O    0.93508   0.08410   0.67227   1.000
    O703    O    0.90414   0.15737   0.59943   1.000
    H704    H    0.57747   0.40729   0.53902   1.000
    H705    H    0.73515   0.34037   0.51532   1.000
    H706    H    0.69749   0.36649   0.50073   1.000
    H707    H    0.86577   0.32174   0.42554   1.000
    H708    H    0.79634   0.29999   0.47131   1.000
    H709    H    0.95064   0.17176   0.66698   1.000
    H710    H    0.97918   0.19950   0.58290   1.000
    H711    H    0.88199   0.15579   0.70849   1.000
    H712    H    0.84203   0.17998   0.73557   1.000
    H713    H    0.83819   0.16567   0.66698   1.000
    H714    H    0.79849   0.18961   0.69394   1.000
    H715    H    0.77561   0.27242   0.61090   1.000
    H716    H    0.75951   0.25665   0.65835   1.000
    H717    H    0.90802   0.31059   0.52408   1.000
    H718    H    0.93376   0.30483   0.54690   1.000
    H719    H    0.84363   0.36814   0.55895   1.000
    H720    H    0.86898   0.36260   0.58131   1.000
    C721    C    0.54723   0.46092   0.56944   1.000
    C722    C    0.51247   0.39955   0.72696   1.000
    C723    C    0.50403   0.41455   0.70539   1.000
    C724    C    0.42746   0.40521   0.85054   1.000
    C725    C    0.47489   0.38220   0.83063   1.000
    C726    C    0.45167   0.40641   0.83104   1.000
    C727    C    0.45304   0.43068   0.81170   1.000
    C728    C    0.64843   0.20837   0.95726   1.000
    C729    C    0.62501   0.25305   0.96258   1.000
    C730    C    0.62494   0.22795   0.96494   1.000
    C731    C    0.60143   0.22390   0.97322   1.000
    C732    C    0.70516   0.26799   0.86389   1.000
    C733    C    0.66831   0.29961   0.88804   1.000
    C734    C    0.68530   0.29240   0.86360   1.000
    C735    C    0.72083   0.26152   0.84085   1.000
    C736    C    0.73261   0.27199   0.79230   1.000
    C737    C    0.71726   0.27927   0.81672   1.000
    C738    C    0.68190   0.31016   0.83943   1.000
    C739    C    0.69757   0.30374   0.81647   1.000
    C740    C    0.62099   0.32264   0.77212   1.000
    C741    C    0.64841   0.31363   0.76276   1.000
    C742    C    0.53632   0.24194   0.89950   1.000
    C743    C    0.52830   0.27304   0.85700   1.000
    C744    C    0.53987   0.24672   0.87369   1.000
    C745    C    0.54938   0.21750   0.91423   1.000
    C746    C    0.66808   0.33257   0.92138   1.000
    C747    C    0.56615   0.19747   0.90339   1.000
    C748    C    0.55592   0.22638   0.86331   1.000
    C749    C    0.56881   0.20213   0.87794   1.000
    O750    O    0.50214   0.46103   0.61124   1.000
    O751    O    0.52525   0.36883   0.77265   1.000
    O752    O    0.48477   0.44352   0.66370   1.000
    O753    O    0.49673   0.38370   0.81320   1.000
    O754    O    0.47176   0.31969   0.84773   1.000
    O755    O    0.64681   0.25626   0.95352   1.000
    O756    O    0.64670   0.28098   0.97946   1.000
    O757    O    0.67277   0.28390   0.90937   1.000
    O758    O    0.65000   0.32149   0.88647   1.000
    O759    O    0.74940   0.24927   0.79336   1.000
    O760    O    0.72771   0.28867   0.77143   1.000
    O761    O    0.56556   0.33926   0.79140   1.000
    O762    O    0.70249   0.29346   0.74604   1.000
    O763    O    0.51111   0.29016   0.86762   1.000
    O764    O    0.53657   0.35332   0.83264   1.000
    O765    O    0.67227   0.30855   0.93508   1.000
    O766    O    0.59943   0.33907   0.90414   1.000
    H767    H    0.53902   0.47622   0.57747   1.000
    H768    H    0.51532   0.40917   0.73515   1.000
    H769    H    0.50073   0.43529   0.69749   1.000
    H770    H    0.42554   0.38695   0.86577   1.000
    H771    H    0.47131   0.43236   0.79634   1.000
    H772    H    0.66698   0.21061   0.95064   1.000
    H773    H    0.58290   0.23842   0.97918   1.000
    H774    H    0.70849   0.25374   0.88199   1.000
    H775    H    0.73557   0.24241   0.84203   1.000
    H776    H    0.66698   0.32917   0.83819   1.000
    H777    H    0.69394   0.31797   0.79849   1.000
    H778    H    0.61090   0.34107   0.77561   1.000
    H779    H    0.65835   0.32549   0.75951   1.000
    H780    H    0.52408   0.25730   0.90802   1.000
    H781    H    0.54690   0.21452   0.93376   1.000
    H782    H    0.55895   0.22928   0.84363   1.000
    H783    H    0.58131   0.18711   0.86898   1.000
    C784    C    0.82760   0.78908   0.68056   1.000
    C785    C    0.88898   0.85045   0.52304   1.000
    C786    C    0.87397   0.83545   0.54461   1.000
    C787    C    0.93321   0.84479   0.39946   1.000
    C788    C    0.93773   0.86780   0.41937   1.000
    C789    C    0.93911   0.84359   0.41896   1.000
    C790    C    0.94542   0.81932   0.43830   1.000
    C791    C    0.06406   0.04163   0.29274   1.000
    C792    C    0.09064   0.99695   0.28742   1.000
    C793    C    0.06782   0.02205   0.28506   1.000
    C794    C    0.04855   0.02610   0.27678   1.000
    C795    C    0.91028   0.00328   0.71013   1.000
    C796    C    0.93111   0.03250   0.70062   1.000
    C797    C    0.17204   0.91743   0.58192   1.000
    C798    C    0.91701   0.05253   0.68385   1.000
    C799    C    0.89562   0.02362   0.69408   1.000
    C800    C    0.89889   0.04787   0.68119   1.000
    O801    O    0.82441   0.78897   0.74786   1.000
    O802    O    0.91673   0.88117   0.72475   1.000
    O803    O    0.84199   0.80648   0.76523   1.000
    O804    O    0.94363   0.86630   0.75327   1.000
    O805    O    0.88918   0.93031   0.77824   1.000
    O806    O    0.10659   0.99374   0.60319   1.000
    O807    O    0.15715   0.96902   0.60330   1.000
    O808    O    0.11604   0.96610   0.57723   1.000
    O809    O    0.10795   0.92851   0.60000   1.000
    O810    O    0.04203   0.00073   0.50060   1.000
    O811    O    0.03782   0.96133   0.52229   1.000
    O812    O    0.94621   0.91074   0.68444   1.000
    O813    O    0.99199   0.95654   0.54751   1.000
    O814    O    0.91888   0.95984   0.73889   1.000
    O815    O    0.97254   0.89668   0.71343   1.000
    O816    O    0.16590   0.94145   0.57773   1.000
    O817    O    0.09263   0.91093   0.65057   1.000
    H818    H    0.84271   0.77378   0.71098   1.000
    C819    C    0.91028   0.00328   0.37631   1.000
    C820    C    0.93111   0.03250   0.33577   1.000
    C821    C    0.17204   0.91743   0.32862   1.000
    C822    C    0.91701   0.05253   0.34661   1.000
    C823    C    0.89562   0.02362   0.38669   1.000
    C824    C    0.89889   0.04787   0.37206   1.000
    O825    O    0.82441   0.78897   0.63876   1.000
    O826    O    0.91673   0.88117   0.47735   1.000
    O827    O    0.84199   0.80648   0.58630   1.000
    O828    O    0.94363   0.86630   0.43680   1.000
    O829    O    0.88918   0.93031   0.40227   1.000
    O830    O    0.10659   0.99374   0.29648   1.000
    O831    O    0.15715   0.96902   0.27054   1.000
    O832    O    0.11604   0.96610   0.34063   1.000
    O833    O    0.10795   0.92851   0.36353   1.000
    O834    O    0.04203   0.00073   0.45664   1.000
    O835    O    0.03782   0.96133   0.47857   1.000
    O836    O    0.94621   0.91074   0.45860   1.000
    O837    O    0.99199   0.95654   0.50396   1.000
    O838    O    0.91888   0.95984   0.38238   1.000
    O839    O    0.97254   0.89668   0.41736   1.000
    O840    O    0.16590   0.94145   0.31492   1.000
    O841    O    0.09263   0.91093   0.34586   1.000
    H842    H    0.84271   0.77378   0.67253   1.000
    H843    H    0.90963   0.84083   0.51485   1.000
    H844    H    0.88351   0.81471   0.55251   1.000
    H845    H    0.92826   0.86305   0.38423   1.000
    H846    H    0.95001   0.81764   0.45366   1.000
    H847    H    0.07824   0.03939   0.29936   1.000
    H848    H    0.05050   0.01158   0.27082   1.000
    H849    H    0.09421   0.99626   0.36801   1.000
    H850    H    0.07002   0.00759   0.40797   1.000
    H851    H    0.08433   0.92083   0.41181   1.000
    H852    H    0.06039   0.93203   0.45151   1.000
    H853    H    0.97758   0.90893   0.47439   1.000
    H854    H    0.99335   0.92451   0.49049   1.000
    H855    H    0.93941   0.99270   0.34198   1.000
    H856    H    0.94517   0.03548   0.31624   1.000
    H857    H    0.88186   0.02072   0.40637   1.000
    H858    H    0.88740   0.06289   0.38102   1.000
    C859    C    0.78908   0.82760   0.70277   1.000
    C860    C    0.85045   0.88898   0.73753   1.000
    C861    C    0.83545   0.87397   0.74597   1.000
    C862    C    0.84479   0.93321   0.82254   1.000
    C863    C    0.86780   0.93773   0.77511   1.000
    C864    C    0.84359   0.93911   0.79833   1.000
    C865    C    0.81932   0.94542   0.79696   1.000
    C866    C    0.04163   0.06406   0.60157   1.000
    C867    C    0.99695   0.09064   0.62499   1.000
    C868    C    0.02205   0.06782   0.62506   1.000
    C869    C    0.02610   0.04855   0.64857   1.000
    C870    C    0.98201   0.08703   0.54484   1.000
    C871    C    0.95039   0.10596   0.58169   1.000
    C872    C    0.95760   0.09130   0.56470   1.000
    C873    C    0.98848   0.07319   0.52917   1.000
    C874    C    0.97801   0.04690   0.51739   1.000
    C875    C    0.97073   0.06325   0.53274   1.000
    C876    C    0.93984   0.08149   0.56810   1.000
    C877    C    0.94626   0.06778   0.55243   1.000
    C878    C    0.92736   0.96575   0.62901   1.000
    C879    C    0.93637   0.97480   0.60159   1.000
    C880    C    0.00806   0.92776   0.71368   1.000
    C881    C    0.97696   0.90834   0.72170   1.000
    C882    C    0.00328   0.91028   0.71013   1.000
    C883    C    0.03250   0.93111   0.70062   1.000
    C884    C    0.91743   0.17204   0.58192   1.000
    C885    C    0.05253   0.91701   0.68385   1.000
    C886    C    0.02362   0.89562   0.69408   1.000
    C887    C    0.04787   0.89889   0.68119   1.000
    O888    O    0.78897   0.82441   0.74786   1.000
    O889    O    0.88117   0.91673   0.72475   1.000
    O890    O    0.80648   0.84199   0.76523   1.000
    O891    O    0.86630   0.94363   0.75327   1.000
    O892    O    0.93031   0.88918   0.77824   1.000
    O893    O    0.99374   0.10659   0.60319   1.000
    O894    O    0.96902   0.15715   0.60330   1.000
    O895    O    0.96610   0.11604   0.57723   1.000
    O896    O    0.92851   0.10795   0.60000   1.000
    O897    O    0.00073   0.04203   0.50060   1.000
    O898    O    0.96133   0.03782   0.52229   1.000
    O899    O    0.91074   0.94621   0.68444   1.000
    O900    O    0.95654   0.99199   0.54751   1.000
    O901    O    0.95984   0.91888   0.73889   1.000
    O902    O    0.89668   0.97254   0.71343   1.000
    O903    O    0.94145   0.16590   0.57773   1.000
    O904    O    0.91093   0.09263   0.65057   1.000
    H905    H    0.77378   0.84271   0.71098   1.000
    H906    H    0.84083   0.90963   0.73468   1.000
    H907    H    0.81471   0.88351   0.74927   1.000
    H908    H    0.86305   0.92826   0.82446   1.000
    H909    H    0.81764   0.95001   0.77869   1.000
    H910    H    0.03939   0.07824   0.58302   1.000
    H911    H    0.01158   0.05050   0.66710   1.000
    H912    H    0.99626   0.09421   0.54151   1.000
    H913    H    0.00759   0.07002   0.51443   1.000
    H914    H    0.92083   0.08433   0.58302   1.000
    H915    H    0.93203   0.06039   0.55606   1.000
    H916    H    0.90893   0.97758   0.63910   1.000
    H917    H    0.92451   0.99335   0.59165   1.000
    H918    H    0.99270   0.93941   0.72592   1.000
    H919    H    0.03548   0.94517   0.70310   1.000
    H920    H    0.02072   0.88186   0.69105   1.000
    H921    H    0.06289   0.88740   0.66869   1.000
    C922    C    0.70277   0.68056   0.78908   1.000
    C923    C    0.73753   0.52304   0.85045   1.000
    C924    C    0.74597   0.54461   0.83545   1.000
    C925    C    0.82254   0.39946   0.84479   1.000
    C926    C    0.77511   0.41937   0.86780   1.000
    C927    C    0.79833   0.41896   0.84359   1.000
    C928    C    0.79696   0.43830   0.81932   1.000
    C929    C    0.60157   0.29274   0.04163   1.000
    C930    C    0.62499   0.28742   0.99695   1.000
    C931    C    0.62506   0.28506   0.02205   1.000
    C932    C    0.64857   0.27678   0.02610   1.000
    C933    C    0.54484   0.38611   0.98201   1.000
    C934    C    0.58169   0.36196   0.95039   1.000
    C935    C    0.56470   0.38640   0.95760   1.000
    C936    C    0.52917   0.40915   0.98848   1.000
    C937    C    0.51739   0.45770   0.97801   1.000
    C938    C    0.53274   0.43328   0.97073   1.000
    C939    C    0.56810   0.41057   0.93984   1.000
    C940    C    0.55243   0.43353   0.94626   1.000
    C941    C    0.62901   0.47788   0.92736   1.000
    C942    C    0.60159   0.48724   0.93637   1.000
    C943    C    0.71368   0.35050   0.00806   1.000
    C944    C    0.72170   0.39300   0.97696   1.000
    C945    C    0.71013   0.37631   0.00328   1.000
    C946    C    0.70062   0.33577   0.03250   1.000
    C947    C    0.58192   0.32862   0.91743   1.000
    C948    C    0.68385   0.34661   0.05253   1.000
    C949    C    0.69408   0.38669   0.02362   1.000
    C950    C    0.68119   0.37206   0.04787   1.000
    O951    O    0.74786   0.63876   0.78897   1.000
    O952    O    0.72475   0.47735   0.88117   1.000
    O953    O    0.76523   0.58630   0.80648   1.000
    O954    O    0.75327   0.43680   0.86630   1.000
    O955    O    0.77824   0.40227   0.93031   1.000
    O956    O    0.60319   0.29648   0.99374   1.000
    O957    O    0.60330   0.27054   0.96902   1.000
    O958    O    0.57723   0.34063   0.96610   1.000
    O959    O    0.60000   0.36353   0.92851   1.000
    O960    O    0.50060   0.45664   0.00073   1.000
    O961    O    0.52229   0.47857   0.96133   1.000
    O962    O    0.68444   0.45860   0.91074   1.000
    O963    O    0.54751   0.50396   0.95654   1.000
    O964    O    0.73889   0.38238   0.95984   1.000
    O965    O    0.71343   0.41736   0.89668   1.000
    O966    O    0.57773   0.31492   0.94145   1.000
    O967    O    0.65057   0.34586   0.91093   1.000
    H968    H    0.71098   0.67253   0.77378   1.000
    H969    H    0.73468   0.51485   0.84083   1.000
    H970    H    0.74927   0.55251   0.81471   1.000
    H971    H    0.82446   0.38423   0.86305   1.000
    H972    H    0.77869   0.45366   0.81764   1.000
    H973    H    0.58302   0.29936   0.03939   1.000
    H974    H    0.66710   0.27082   0.01158   1.000
    H975    H    0.54151   0.36801   0.99626   1.000
    H976    H    0.51443   0.40797   0.00759   1.000
    H977    H    0.58302   0.41181   0.92083   1.000
    H978    H    0.55606   0.45151   0.93203   1.000
    H979    H    0.63910   0.47439   0.90893   1.000
    H980    H    0.59165   0.49049   0.92451   1.000
    H981    H    0.72592   0.34198   0.99270   1.000
    H982    H    0.70310   0.31624   0.03548   1.000
    H983    H    0.69105   0.40637   0.02072   1.000
    H984    H    0.66869   0.38102   0.06289   1.000
    C985    C    0.68056   0.70277   0.82760   1.000
    C986    C    0.52304   0.73753   0.88898   1.000
    C987    C    0.54461   0.74597   0.87397   1.000
    C988    C    0.39946   0.82254   0.93321   1.000
    C989    C    0.41937   0.77511   0.93773   1.000
    C990    C    0.41896   0.79833   0.93911   1.000
    C991    C    0.43830   0.79696   0.94542   1.000
    C992    C    0.29274   0.60157   0.06406   1.000
    C993    C    0.28742   0.62499   0.09064   1.000
    C994    C    0.28506   0.62506   0.06782   1.000
    C995    C    0.27678   0.64857   0.04855   1.000
    C996    C    0.38611   0.54484   0.08703   1.000
    C997    C    0.36196   0.58169   0.10596   1.000
    C998    C    0.38640   0.56470   0.09130   1.000
    C999    C    0.40915   0.52917   0.07319   1.000
    C1000   C    0.45770   0.51739   0.04690   1.000
    C1001   C    0.43328   0.53274   0.06325   1.000
    C1002   C    0.41057   0.56810   0.08149   1.000
    C1003   C    0.43353   0.55243   0.06778   1.000
    C1004   C    0.47788   0.62901   0.96575   1.000
    C1005   C    0.48724   0.60159   0.97480   1.000
    C1006   C    0.35050   0.71368   0.92776   1.000
    C1007   C    0.39300   0.72170   0.90834   1.000
    C1008   C    0.37631   0.71013   0.91028   1.000
    C1009   C    0.33577   0.70062   0.93111   1.000
    C1010   C    0.32862   0.58192   0.17204   1.000
    C1011   C    0.34661   0.68385   0.91701   1.000
    C1012   C    0.38669   0.69408   0.89562   1.000
    C1013   C    0.37206   0.68119   0.89889   1.000
    O1014   O    0.63876   0.74786   0.82441   1.000
    O1015   O    0.47735   0.72475   0.91673   1.000
    O1016   O    0.58630   0.76523   0.84199   1.000
    O1017   O    0.43680   0.75327   0.94363   1.000
    O1018   O    0.40227   0.77824   0.88918   1.000
    O1019   O    0.29648   0.60319   0.10659   1.000
    O1020   O    0.27054   0.60330   0.15715   1.000
    O1021   O    0.34063   0.57723   0.11604   1.000
    O1022   O    0.36353   0.60000   0.10795   1.000
    O1023   O    0.45664   0.50060   0.04203   1.000
    O1024   O    0.47857   0.52229   0.03782   1.000
    O1025   O    0.45860   0.68444   0.94621   1.000
    O1026   O    0.50396   0.54751   0.99199   1.000
    O1027   O    0.38238   0.73889   0.91888   1.000
    O1028   O    0.41736   0.71343   0.97254   1.000
    O1029   O    0.31492   0.57773   0.16590   1.000
    O1030   O    0.34586   0.65057   0.09263   1.000
    H1031   H    0.67253   0.71098   0.84271   1.000
    O1032   O    0.80648   0.58630   0.76523   1.000
    O1033   O    0.86630   0.43680   0.75327   1.000
    O1034   O    0.93031   0.40227   0.77824   1.000
    O1035   O    0.99374   0.29648   0.60319   1.000
    O1036   O    0.96902   0.27054   0.60330   1.000
    O1037   O    0.96610   0.34063   0.57723   1.000
    O1038   O    0.92851   0.36353   0.60000   1.000
    O1039   O    0.00073   0.45664   0.50060   1.000
    O1040   O    0.96133   0.47857   0.52229   1.000
    O1041   O    0.91074   0.45860   0.68444   1.000
    O1042   O    0.95654   0.50396   0.54751   1.000
    O1043   O    0.95984   0.38238   0.73889   1.000
    O1044   O    0.89668   0.41736   0.71343   1.000
    O1045   O    0.94145   0.31492   0.57773   1.000
    O1046   O    0.91093   0.34586   0.65057   1.000
    H1047   H    0.77378   0.67253   0.71098   1.000
    H1048   H    0.84083   0.51485   0.73468   1.000
    H1049   H    0.81471   0.55251   0.74927   1.000
    H1050   H    0.86305   0.38423   0.82446   1.000
    H1051   H    0.81764   0.45366   0.77869   1.000
    H1052   H    0.03939   0.29936   0.58302   1.000
    H1053   H    0.01158   0.27082   0.66710   1.000
    H1054   H    0.99626   0.36801   0.54151   1.000
    H1055   H    0.00759   0.40797   0.51443   1.000
    H1056   H    0.92083   0.41181   0.58302   1.000
    H1057   H    0.93203   0.45151   0.55606   1.000
    H1058   H    0.90893   0.47439   0.63910   1.000
    H1059   H    0.92451   0.49049   0.59165   1.000
    H1060   H    0.99270   0.34198   0.72592   1.000
    H1061   H    0.03548   0.31624   0.70310   1.000
    H1062   H    0.02072   0.40637   0.69105   1.000
    H1063   H    0.06289   0.38102   0.66869   1.000
    C1064   C    0.70277   0.82760   0.68056   1.000
    C1065   C    0.73753   0.88898   0.52304   1.000
    C1066   C    0.74597   0.87397   0.54461   1.000
    C1067   C    0.82254   0.93321   0.39946   1.000
    C1068   C    0.77511   0.93773   0.41937   1.000
    C1069   C    0.79833   0.93911   0.41896   1.000
    C1070   C    0.79696   0.94542   0.43830   1.000
    C1071   C    0.60157   0.06406   0.29274   1.000
    C1072   C    0.62499   0.09064   0.28742   1.000
    C1073   C    0.62506   0.06782   0.28506   1.000
    C1074   C    0.64857   0.04855   0.27678   1.000
    C1075   C    0.54484   0.08703   0.38611   1.000
    C1076   C    0.58169   0.10596   0.36196   1.000
    C1077   C    0.56470   0.09130   0.38640   1.000
    C1078   C    0.52917   0.07319   0.40915   1.000
    C1079   C    0.51739   0.04690   0.45770   1.000
    C1080   C    0.53274   0.06325   0.43328   1.000
    C1081   C    0.56810   0.08149   0.41057   1.000
    C1082   C    0.55243   0.06778   0.43353   1.000
    C1083   C    0.62901   0.96575   0.47788   1.000
    C1084   C    0.60159   0.97480   0.48724   1.000
    C1085   C    0.71368   0.92776   0.35050   1.000
    C1086   C    0.72170   0.90834   0.39300   1.000
    C1087   C    0.71013   0.91028   0.37631   1.000
    C1088   C    0.70062   0.93111   0.33577   1.000
    C1089   C    0.58192   0.17204   0.32862   1.000
    C1090   C    0.68385   0.91701   0.34661   1.000
    C1091   C    0.69408   0.89562   0.38669   1.000
    C1092   C    0.68119   0.89889   0.37206   1.000
    O1093   O    0.74786   0.82441   0.63876   1.000
    O1094   O    0.72475   0.91673   0.47735   1.000
    O1095   O    0.76523   0.84199   0.58630   1.000
    O1096   O    0.75327   0.94363   0.43680   1.000
    O1097   O    0.77824   0.88918   0.40227   1.000
    O1098   O    0.60319   0.10659   0.29648   1.000
    O1099   O    0.60330   0.15715   0.27054   1.000
    O1100   O    0.57723   0.11604   0.34063   1.000
    O1101   O    0.60000   0.10795   0.36353   1.000
    O1102   O    0.50060   0.04203   0.45664   1.000
    O1103   O    0.52229   0.03782   0.47857   1.000
    O1104   O    0.68444   0.94621   0.45860   1.000
    O1105   O    0.54751   0.99199   0.50396   1.000
    O1106   O    0.73889   0.91888   0.38238   1.000
    O1107   O    0.71343   0.97254   0.41736   1.000
    O1108   O    0.57773   0.16590   0.31492   1.000
    O1109   O    0.65057   0.09263   0.34586   1.000
    H1110   H    0.71098   0.84271   0.67253   1.000
    H1111   H    0.73468   0.90963   0.51485   1.000
    H1112   H    0.74927   0.88351   0.55251   1.000
    H1113   H    0.82446   0.92826   0.38423   1.000
    H1114   H    0.77869   0.95001   0.45366   1.000
    H1115   H    0.58302   0.07824   0.29936   1.000
    H1116   H    0.66710   0.05050   0.27082   1.000
    H1117   H    0.54151   0.09421   0.36801   1.000
    H1118   H    0.51443   0.07002   0.40797   1.000
    H1119   H    0.58302   0.08433   0.41181   1.000
    H1120   H    0.55606   0.06039   0.45151   1.000
    H1121   H    0.63910   0.97758   0.47439   1.000
    H1122   H    0.59165   0.99335   0.49049   1.000
    H1123   H    0.72592   0.93941   0.34198   1.000
    H1124   H    0.70310   0.94517   0.31624   1.000
    H1125   H    0.69105   0.88186   0.40637   1.000
    H1126   H    0.66869   0.88740   0.38102   1.000
    C1127   C    0.68056   0.78908   0.70277   1.000
    C1128   C    0.52304   0.85045   0.73753   1.000
    C1129   C    0.54461   0.83545   0.74597   1.000
    C1130   C    0.39946   0.84479   0.82254   1.000
    C1131   C    0.41937   0.86780   0.77511   1.000
    C1132   C    0.41896   0.84359   0.79833   1.000
    C1133   C    0.43830   0.81932   0.79696   1.000
    C1134   C    0.29274   0.04163   0.60157   1.000
    C1135   C    0.28742   0.99695   0.62499   1.000
    C1136   C    0.28506   0.02205   0.62506   1.000
    C1137   C    0.27678   0.02610   0.64857   1.000
    C1138   C    0.38611   0.98201   0.54484   1.000
    C1139   C    0.36196   0.95039   0.58169   1.000
    C1140   C    0.38640   0.95760   0.56470   1.000
    C1141   C    0.40915   0.98848   0.52917   1.000
    C1142   C    0.45770   0.97801   0.51739   1.000
    C1143   C    0.43328   0.97073   0.53274   1.000
    C1144   C    0.41057   0.93984   0.56810   1.000
    C1145   C    0.43353   0.94626   0.55243   1.000
    C1146   C    0.47788   0.92736   0.62901   1.000
    C1147   C    0.48724   0.93637   0.60159   1.000
    C1148   C    0.35050   0.00806   0.71368   1.000
    C1149   C    0.39300   0.97696   0.72170   1.000
    C1150   C    0.37631   0.00328   0.71013   1.000
    C1151   C    0.33577   0.03250   0.70062   1.000
    C1152   C    0.32862   0.91743   0.58192   1.000
    C1153   C    0.34661   0.05253   0.68385   1.000
    C1154   C    0.38669   0.02362   0.69408   1.000
    C1155   C    0.37206   0.04787   0.68119   1.000
    O1156   O    0.63876   0.78897   0.74786   1.000
    O1157   O    0.47735   0.88117   0.72475   1.000
    O1158   O    0.58630   0.80648   0.76523   1.000
    O1159   O    0.43680   0.86630   0.75327   1.000
    O1160   O    0.40227   0.93031   0.77824   1.000
    O1161   O    0.29648   0.99374   0.60319   1.000
    O1162   O    0.27054   0.96902   0.60330   1.000
    O1163   O    0.34063   0.96610   0.57723   1.000
    O1164   O    0.36353   0.92851   0.60000   1.000
    O1165   O    0.45664   0.00073   0.50060   1.000
    O1166   O    0.47857   0.96133   0.52229   1.000
    O1167   O    0.45860   0.91074   0.68444   1.000
    O1168   O    0.50396   0.95654   0.54751   1.000
    O1169   O    0.38238   0.95984   0.73889   1.000
    O1170   O    0.41736   0.89668   0.71343   1.000
    O1171   O    0.31492   0.94145   0.57773   1.000
    O1172   O    0.34586   0.91093   0.65057   1.000
    H1173   H    0.67253   0.77378   0.71098   1.000
    H1174   H    0.51485   0.84083   0.73468   1.000
    H1175   H    0.55251   0.81471   0.74927   1.000
    H1176   H    0.38423   0.86305   0.82446   1.000
    H1177   H    0.45366   0.81764   0.77869   1.000
    H1178   H    0.29936   0.03939   0.58302   1.000
    H1179   H    0.27082   0.01158   0.66710   1.000
    H1180   H    0.36801   0.99626   0.54151   1.000
    H1181   H    0.40797   0.00759   0.51443   1.000
    H1182   H    0.41181   0.92083   0.58302   1.000
    H1183   H    0.45151   0.93203   0.55606   1.000
    H1184   H    0.47439   0.90893   0.63910   1.000
    H1185   H    0.49049   0.92451   0.59165   1.000
    H1186   H    0.34198   0.99270   0.72592   1.000
    H1187   H    0.31624   0.03548   0.70310   1.000
    H1188   H    0.40637   0.02072   0.69105   1.000
    H1189   H    0.38102   0.06289   0.66869   1.000
    C1190   C    0.82760   0.70277   0.78908   1.000
    C1191   C    0.88898   0.73753   0.85045   1.000
    C1192   C    0.87397   0.74597   0.83545   1.000
    C1193   C    0.93321   0.82254   0.84479   1.000
    C1194   C    0.93773   0.77511   0.86780   1.000
    C1195   C    0.93911   0.79833   0.84359   1.000
    C1196   C    0.94542   0.79696   0.81932   1.000
    C1197   C    0.06406   0.60157   0.04163   1.000
    C1198   C    0.09064   0.62499   0.99695   1.000
    C1199   C    0.06782   0.62506   0.02205   1.000
    C1200   C    0.04855   0.64857   0.02610   1.000
    C1201   C    0.08703   0.54484   0.98201   1.000
    C1202   C    0.10596   0.58169   0.95039   1.000
    C1203   C    0.09130   0.56470   0.95760   1.000
    C1204   C    0.07319   0.52917   0.98848   1.000
    C1205   C    0.04690   0.51739   0.97801   1.000
    C1206   C    0.06325   0.53274   0.97073   1.000
    C1207   C    0.08149   0.56810   0.93984   1.000
    C1208   C    0.06778   0.55243   0.94626   1.000
    C1209   C    0.96575   0.62901   0.92736   1.000
    C1210   C    0.97480   0.60159   0.93637   1.000
    C1211   C    0.92776   0.71368   0.00806   1.000
    C1212   C    0.90834   0.72170   0.97696   1.000
    C1213   C    0.91028   0.71013   0.00328   1.000
    C1214   C    0.93111   0.70062   0.03250   1.000
    C1215   C    0.17204   0.58192   0.91743   1.000
    C1216   C    0.91701   0.68385   0.05253   1.000
    C1217   C    0.89562   0.69408   0.02362   1.000
    C1218   C    0.89889   0.68119   0.04787   1.000
    O1219   O    0.82441   0.74786   0.78897   1.000
    O1220   O    0.91673   0.72475   0.88117   1.000
    O1221   O    0.84199   0.76523   0.80648   1.000
    O1222   O    0.94363   0.75327   0.86630   1.000
    O1223   O    0.88918   0.77824   0.93031   1.000
    O1224   O    0.10659   0.60319   0.99374   1.000
    O1225   O    0.15715   0.60330   0.96902   1.000
    O1226   O    0.11604   0.57723   0.96610   1.000
    O1227   O    0.10795   0.60000   0.92851   1.000
    O1228   O    0.04203   0.50060   0.00073   1.000
    O1229   O    0.03782   0.52229   0.96133   1.000
    O1230   O    0.94621   0.68444   0.91074   1.000
    O1231   O    0.99199   0.54751   0.95654   1.000
    O1232   O    0.91888   0.73889   0.95984   1.000
    O1233   O    0.97254   0.71343   0.89668   1.000
    O1234   O    0.16590   0.57773   0.94145   1.000
    O1235   O    0.09263   0.65057   0.91093   1.000
    H1236   H    0.84271   0.71098   0.77378   1.000
    H1237   H    0.90963   0.73468   0.84083   1.000
    H1238   H    0.88351   0.74927   0.81471   1.000
    H1239   H    0.92826   0.82446   0.86305   1.000
    H1240   H    0.95001   0.77869   0.81764   1.000
    H1241   H    0.07824   0.58302   0.03939   1.000
    H1242   H    0.05050   0.66710   0.01158   1.000
    H1243   H    0.09421   0.54151   0.99626   1.000
    H1244   H    0.07002   0.51443   0.00759   1.000
    H1245   H    0.08433   0.58302   0.92083   1.000
    H1246   H    0.06039   0.55606   0.93203   1.000
    H1247   H    0.97758   0.63910   0.90893   1.000
    H1248   H    0.99335   0.59165   0.92451   1.000
    H1249   H    0.93941   0.72592   0.99270   1.000
    H1250   H    0.94517   0.70310   0.03548   1.000
    H1251   H    0.88186   0.69105   0.02072   1.000
    H1252   H    0.88740   0.66869   0.06289   1.000
    C1253   C    0.78908   0.68056   0.82760   1.000
    C1254   C    0.85045   0.52304   0.88898   1.000
    C1255   C    0.83545   0.54461   0.87397   1.000
    C1256   C    0.84479   0.39946   0.93321   1.000
    C1257   C    0.86780   0.41937   0.93773   1.000
    C1258   C    0.84359   0.41896   0.93911   1.000
    C1259   C    0.81932   0.43830   0.94542   1.000
    C1260   C    0.04163   0.29274   0.06406   1.000
    C1261   C    0.99695   0.28742   0.09064   1.000
    C1262   C    0.02205   0.28506   0.06782   1.000
    C1263   C    0.02610   0.27678   0.04855   1.000
    C1264   C    0.98201   0.38611   0.08703   1.000
    C1265   C    0.95039   0.36196   0.10596   1.000
    C1266   C    0.95760   0.38640   0.09130   1.000
    C1267   C    0.98848   0.40915   0.07319   1.000
    C1268   C    0.97801   0.45770   0.04690   1.000
    C1269   C    0.97073   0.43328   0.06325   1.000
    C1270   C    0.93984   0.41057   0.08149   1.000
    C1271   C    0.94626   0.43353   0.06778   1.000
    C1272   C    0.92736   0.47788   0.96575   1.000
    C1273   C    0.93637   0.48724   0.97480   1.000
    C1274   C    0.00806   0.35050   0.92776   1.000
    C1275   C    0.97696   0.39300   0.90834   1.000
    C1276   C    0.00328   0.37631   0.91028   1.000
    C1277   C    0.03250   0.33577   0.93111   1.000
    C1278   C    0.91743   0.32862   0.17204   1.000
    C1279   C    0.05253   0.34661   0.91701   1.000
    C1280   C    0.02362   0.38669   0.89562   1.000
    C1281   C    0.04787   0.37206   0.89889   1.000
    O1282   O    0.78897   0.63876   0.82441   1.000
    O1283   O    0.88117   0.47735   0.91673   1.000
    O1284   O    0.80648   0.58630   0.84199   1.000
    O1285   O    0.86630   0.43680   0.94363   1.000
    O1286   O    0.93031   0.40227   0.88918   1.000
    O1287   O    0.99374   0.29648   0.10659   1.000
    O1288   O    0.96902   0.27054   0.15715   1.000
    O1289   O    0.96610   0.34063   0.11604   1.000
    O1290   O    0.92851   0.36353   0.10795   1.000
    O1291   O    0.00073   0.45664   0.04203   1.000
    O1292   O    0.96133   0.47857   0.03782   1.000
    O1293   O    0.91074   0.45860   0.94621   1.000
    O1294   O    0.95654   0.50396   0.99199   1.000
    O1295   O    0.95984   0.38238   0.91888   1.000
    O1296   O    0.89668   0.41736   0.97254   1.000
    O1297   O    0.94145   0.31492   0.16590   1.000
    O1298   O    0.91093   0.34586   0.09263   1.000
    H1299   H    0.77378   0.67253   0.84271   1.000
    H1300   H    0.84083   0.51485   0.90963   1.000
    H1301   H    0.81471   0.55251   0.88351   1.000
    H1302   H    0.86305   0.38423   0.92826   1.000
    H1303   H    0.81764   0.45366   0.95001   1.000
    H1304   H    0.03939   0.29936   0.07824   1.000
    H1305   H    0.01158   0.27082   0.05050   1.000
    H1306   H    0.99626   0.36801   0.09421   1.000
    H1307   H    0.00759   0.40797   0.07002   1.000
    H1308   H    0.92083   0.41181   0.08433   1.000
    H1309   H    0.93203   0.45151   0.06039   1.000
    H1310   H    0.90893   0.47439   0.97758   1.000
    H1311   H    0.92451   0.49049   0.99335   1.000
    H1312   H    0.99270   0.34198   0.93941   1.000
    H1313   H    0.03548   0.31624   0.94517   1.000
    H1314   H    0.02072   0.40637   0.88186   1.000
    H1315   H    0.06289   0.38102   0.88740   1.000
    C1316   C    0.78908   0.70277   0.68056   1.000
    C1317   C    0.85045   0.73753   0.52304   1.000
    C1318   C    0.83545   0.74597   0.54461   1.000
    C1319   C    0.84479   0.82254   0.39946   1.000
    C1320   C    0.86780   0.77511   0.41937   1.000
    C1321   C    0.84359   0.79833   0.41896   1.000
    C1322   C    0.81932   0.79696   0.43830   1.000
    C1323   C    0.04163   0.60157   0.29274   1.000
    C1324   C    0.99695   0.62499   0.28742   1.000
    C1325   C    0.02205   0.62506   0.28506   1.000
    C1326   C    0.02610   0.64857   0.27678   1.000
    C1327   C    0.98201   0.54484   0.38611   1.000
    C1328   C    0.95039   0.58169   0.36196   1.000
    C1329   C    0.95760   0.56470   0.38640   1.000
    C1330   C    0.98848   0.52917   0.40915   1.000
    C1331   C    0.97801   0.51739   0.45770   1.000
    C1332   C    0.97073   0.53274   0.43328   1.000
    C1333   C    0.93984   0.56810   0.41057   1.000
    C1334   C    0.94626   0.55243   0.43353   1.000
    C1335   C    0.92736   0.62901   0.47788   1.000
    C1336   C    0.93637   0.60159   0.48724   1.000
    C1337   C    0.00806   0.71368   0.35050   1.000
    C1338   C    0.97696   0.72170   0.39300   1.000
    C1339   C    0.00328   0.71013   0.37631   1.000
    C1340   C    0.03250   0.70062   0.33577   1.000
    C1341   C    0.91743   0.58192   0.32862   1.000
    C1342   C    0.05253   0.68385   0.34661   1.000
    C1343   C    0.02362   0.69408   0.38669   1.000
    C1344   C    0.04787   0.68119   0.37206   1.000
    O1345   O    0.78897   0.74786   0.63876   1.000
    O1346   O    0.88117   0.72475   0.47735   1.000
    O1347   O    0.80648   0.76523   0.58630   1.000
    O1348   O    0.86630   0.75327   0.43680   1.000
    O1349   O    0.93031   0.77824   0.40227   1.000
    O1350   O    0.99374   0.60319   0.29648   1.000
    O1351   O    0.96902   0.60330   0.27054   1.000
    O1352   O    0.96610   0.57723   0.34063   1.000
    O1353   O    0.92851   0.60000   0.36353   1.000
    O1354   O    0.00073   0.50060   0.45664   1.000
    O1355   O    0.96133   0.52229   0.47857   1.000
    O1356   O    0.91074   0.68444   0.45860   1.000
    O1357   O    0.95654   0.54751   0.50396   1.000
    O1358   O    0.95984   0.73889   0.38238   1.000
    O1359   O    0.89668   0.71343   0.41736   1.000
    O1360   O    0.94145   0.57773   0.31492   1.000
    O1361   O    0.91093   0.65057   0.34586   1.000
    H1362   H    0.77378   0.71098   0.67253   1.000
    H1363   H    0.84083   0.73468   0.51485   1.000
    H1364   H    0.81471   0.74927   0.55251   1.000
    H1365   H    0.86305   0.82446   0.38423   1.000
    H1366   H    0.81764   0.77869   0.45366   1.000
    H1367   H    0.03939   0.58302   0.29936   1.000
    H1368   H    0.01158   0.66710   0.27082   1.000
    H1369   H    0.99626   0.54151   0.36801   1.000
    H1370   H    0.00759   0.51443   0.40797   1.000
    H1371   H    0.92083   0.58302   0.41181   1.000
    H1372   H    0.93203   0.55606   0.45151   1.000
    H1373   H    0.90893   0.63910   0.47439   1.000
    H1374   H    0.92451   0.59165   0.49049   1.000
    H1375   H    0.99270   0.72592   0.34198   1.000
    H1376   H    0.03548   0.70310   0.31624   1.000
    H1377   H    0.02072   0.69105   0.40637   1.000
    H1378   H    0.06289   0.66869   0.38102   1.000
    C1379   C    0.82760   0.68056   0.70277   1.000
    C1380   C    0.88898   0.52304   0.73753   1.000
    C1381   C    0.87397   0.54461   0.74597   1.000
    C1382   C    0.93321   0.39946   0.82254   1.000
    C1383   C    0.93773   0.41937   0.77511   1.000
    C1384   C    0.93911   0.41896   0.79833   1.000
    C1385   C    0.94542   0.43830   0.79696   1.000
    C1386   C    0.06406   0.29274   0.60157   1.000
    C1387   C    0.09064   0.28742   0.62499   1.000
    C1388   C    0.06782   0.28506   0.62506   1.000
    C1389   C    0.04855   0.27678   0.64857   1.000
    C1390   C    0.08703   0.38611   0.54484   1.000
    C1391   C    0.10596   0.36196   0.58169   1.000
    C1392   C    0.09130   0.38640   0.56470   1.000
    C1393   C    0.07319   0.40915   0.52917   1.000
    C1394   C    0.04690   0.45770   0.51739   1.000
    C1395   C    0.06325   0.43328   0.53274   1.000
    C1396   C    0.08149   0.41057   0.56810   1.000
    C1397   C    0.06778   0.43353   0.55243   1.000
    C1398   C    0.96575   0.47788   0.62901   1.000
    C1399   C    0.97480   0.48724   0.60159   1.000
    C1400   C    0.92776   0.35050   0.71368   1.000
    C1401   C    0.90834   0.39300   0.72170   1.000
    C1402   C    0.91028   0.37631   0.71013   1.000
    C1403   C    0.93111   0.33577   0.70062   1.000
    C1404   C    0.17204   0.32862   0.58192   1.000
    C1405   C    0.91701   0.34661   0.68385   1.000
    C1406   C    0.89562   0.38669   0.69408   1.000
    C1407   C    0.89889   0.37206   0.68119   1.000
    O1408   O    0.82441   0.63876   0.74786   1.000
    O1409   O    0.91673   0.47735   0.72475   1.000
    O1410   O    0.84199   0.58630   0.76523   1.000
    O1411   O    0.94363   0.43680   0.75327   1.000
    O1412   O    0.88918   0.40227   0.77824   1.000
    O1413   O    0.10659   0.29648   0.60319   1.000
    O1414   O    0.15715   0.27054   0.60330   1.000
    O1415   O    0.11604   0.34063   0.57723   1.000
    O1416   O    0.10795   0.36353   0.60000   1.000
    O1417   O    0.04203   0.45664   0.50060   1.000
    O1418   O    0.03782   0.47857   0.52229   1.000
    O1419   O    0.94621   0.45860   0.68444   1.000
    O1420   O    0.99199   0.50396   0.54751   1.000
    O1421   O    0.91888   0.38238   0.73889   1.000
    O1422   O    0.97254   0.41736   0.71343   1.000
    O1423   O    0.16590   0.31492   0.57773   1.000
    O1424   O    0.09263   0.34586   0.65057   1.000
    H1425   H    0.84271   0.67253   0.71098   1.000
    H1426   H    0.90963   0.51485   0.73468   1.000
    H1427   H    0.88351   0.55251   0.74927   1.000
    H1428   H    0.92826   0.38423   0.82446   1.000
    H1429   H    0.95001   0.45366   0.77869   1.000
    H1430   H    0.07824   0.29936   0.58302   1.000
    H1431   H    0.05050   0.27082   0.66710   1.000
    H1432   H    0.09421   0.36801   0.54151   1.000
    H1433   H    0.07002   0.40797   0.51443   1.000
    H1434   H    0.08433   0.41181   0.58302   1.000
    H1435   H    0.06039   0.45151   0.55606   1.000
    H1436   H    0.97758   0.47439   0.63910   1.000
    H1437   H    0.99335   0.49049   0.59165   1.000
    H1438   H    0.93941   0.34198   0.72592   1.000
    H1439   H    0.94517   0.31624   0.70310   1.000
    H1440   H    0.88186   0.40637   0.69105   1.000
    H1441   H    0.88740   0.38102   0.66869   1.000
    C1442   C    0.68056   0.82760   0.78908   1.000
    C1443   C    0.52304   0.88898   0.85045   1.000
    C1444   C    0.54461   0.87397   0.83545   1.000
    C1445   C    0.39946   0.93321   0.84479   1.000
    C1446   C    0.41937   0.93773   0.86780   1.000
    C1447   C    0.41896   0.93911   0.84359   1.000
    C1448   C    0.43830   0.94542   0.81932   1.000
    C1449   C    0.29274   0.06406   0.04163   1.000
    C1450   C    0.28742   0.09064   0.99695   1.000
    C1451   C    0.28506   0.06782   0.02205   1.000
    C1452   C    0.27678   0.04855   0.02610   1.000
    C1453   C    0.38611   0.08703   0.98201   1.000
    C1454   C    0.36196   0.10596   0.95039   1.000
    C1455   C    0.38640   0.09130   0.95760   1.000
    C1456   C    0.40915   0.07319   0.98848   1.000
    C1457   C    0.45770   0.04690   0.97801   1.000
    C1458   C    0.43328   0.06325   0.97073   1.000
    C1459   C    0.41057   0.08149   0.93984   1.000
    C1460   C    0.43353   0.06778   0.94626   1.000
    C1461   C    0.47788   0.96575   0.92736   1.000
    C1462   C    0.48724   0.97480   0.93637   1.000
    C1463   C    0.35050   0.92776   0.00806   1.000
    C1464   C    0.39300   0.90834   0.97696   1.000
    C1465   C    0.37631   0.91028   0.00328   1.000
    C1466   C    0.33577   0.93111   0.03250   1.000
    C1467   C    0.32862   0.17204   0.91743   1.000
    C1468   C    0.34661   0.91701   0.05253   1.000
    C1469   C    0.38669   0.89562   0.02362   1.000
    C1470   C    0.37206   0.89889   0.04787   1.000
    O1471   O    0.63876   0.82441   0.78897   1.000
    O1472   O    0.47735   0.91673   0.88117   1.000
    O1473   O    0.58630   0.84199   0.80648   1.000
    O1474   O    0.43680   0.94363   0.86630   1.000
    O1475   O    0.40227   0.88918   0.93031   1.000
    O1476   O    0.29648   0.10659   0.99374   1.000
    O1477   O    0.27054   0.15715   0.96902   1.000
    O1478   O    0.34063   0.11604   0.96610   1.000
    O1479   O    0.36353   0.10795   0.92851   1.000
    O1480   O    0.45664   0.04203   0.00073   1.000
    O1481   O    0.47857   0.03782   0.96133   1.000
    O1482   O    0.45860   0.94621   0.91074   1.000
    O1483   O    0.50396   0.99199   0.95654   1.000
    O1484   O    0.38238   0.91888   0.95984   1.000
    O1485   O    0.41736   0.97254   0.89668   1.000
    O1486   O    0.31492   0.16590   0.94145   1.000
    O1487   O    0.34586   0.09263   0.91093   1.000
    H1488   H    0.67253   0.84271   0.77378   1.000
    H1489   H    0.51485   0.90963   0.84083   1.000
    H1490   H    0.55251   0.88351   0.81471   1.000
    H1491   H    0.38423   0.92826   0.86305   1.000
    H1492   H    0.45366   0.95001   0.81764   1.000
    H1493   H    0.29936   0.07824   0.03939   1.000
    H1494   H    0.27082   0.05050   0.01158   1.000
    H1495   H    0.36801   0.09421   0.99626   1.000
    H1496   H    0.40797   0.07002   0.00759   1.000
    H1497   H    0.41181   0.08433   0.92083   1.000
    H1498   H    0.45151   0.06039   0.93203   1.000
    H1499   H    0.47439   0.97758   0.90893   1.000
    H1500   H    0.49049   0.99335   0.92451   1.000
    H1501   H    0.34198   0.93941   0.99270   1.000
    H1502   H    0.31624   0.94517   0.03548   1.000
    H1503   H    0.40637   0.88186   0.02072   1.000
    H1504   H    0.38102   0.88740   0.06289   1.000
    C1505   C    0.70277   0.78908   0.82760   1.000
    C1506   C    0.73753   0.85045   0.88898   1.000
    C1507   C    0.74597   0.83545   0.87397   1.000
    C1508   C    0.82254   0.84479   0.93321   1.000
    C1509   C    0.77511   0.86780   0.93773   1.000
    C1510   C    0.79833   0.84359   0.93911   1.000
    C1511   C    0.79696   0.81932   0.94542   1.000
    C1512   C    0.60157   0.04163   0.06406   1.000
    C1513   C    0.62499   0.99695   0.09064   1.000
    C1514   C    0.62506   0.02205   0.06782   1.000
    C1515   C    0.64857   0.02610   0.04855   1.000
    C1516   C    0.54484   0.98201   0.08703   1.000
    C1517   C    0.58169   0.95039   0.10596   1.000
    C1518   C    0.56470   0.95760   0.09130   1.000
    C1519   C    0.52917   0.98848   0.07319   1.000
    C1520   C    0.51739   0.97801   0.04690   1.000
    C1521   C    0.53274   0.97073   0.06325   1.000
    C1522   C    0.56810   0.93984   0.08149   1.000
    C1523   C    0.55243   0.94626   0.06778   1.000
    C1524   C    0.62901   0.92736   0.96575   1.000
    C1525   C    0.60159   0.93637   0.97480   1.000
    C1526   C    0.71368   0.00806   0.92776   1.000
    C1527   C    0.72170   0.97696   0.90834   1.000
    C1528   C    0.71013   0.00328   0.91028   1.000
    C1529   C    0.70062   0.03250   0.93111   1.000
    C1530   C    0.58192   0.91743   0.17204   1.000
    C1531   C    0.68385   0.05253   0.91701   1.000
    C1532   C    0.69408   0.02362   0.89562   1.000
    C1533   C    0.68119   0.04787   0.89889   1.000
    O1534   O    0.74786   0.78897   0.82441   1.000
    O1535   O    0.72475   0.88117   0.91673   1.000
    O1536   O    0.76523   0.80648   0.84199   1.000
    O1537   O    0.75327   0.86630   0.94363   1.000
    O1538   O    0.77824   0.93031   0.88918   1.000
    O1539   O    0.60319   0.99374   0.10659   1.000
    O1540   O    0.60330   0.96902   0.15715   1.000
    O1541   O    0.57723   0.96610   0.11604   1.000
    O1542   O    0.60000   0.92851   0.10795   1.000
    O1543   O    0.50060   0.00073   0.04203   1.000
    O1544   O    0.52229   0.96133   0.03782   1.000
    O1545   O    0.68444   0.91074   0.94621   1.000
    O1546   O    0.54751   0.95654   0.99199   1.000
    O1547   O    0.73889   0.95984   0.91888   1.000
    O1548   O    0.71343   0.89668   0.97254   1.000
    O1549   O    0.57773   0.94145   0.16590   1.000
    O1550   O    0.65057   0.91093   0.09263   1.000
    H1551   H    0.71098   0.77378   0.84271   1.000
    H1552   H    0.73468   0.84083   0.90963   1.000
    H1553   H    0.74927   0.81471   0.88351   1.000
    H1554   H    0.82446   0.86305   0.92826   1.000
    H1555   H    0.77869   0.81764   0.95001   1.000
    H1556   H    0.58302   0.03939   0.07824   1.000
    H1557   H    0.66710   0.01158   0.05050   1.000
    H1558   H    0.54151   0.99626   0.09421   1.000
    H1559   H    0.51443   0.00759   0.07002   1.000
    H1560   H    0.58302   0.92083   0.08433   1.000
    H1561   H    0.55606   0.93203   0.06039   1.000
    H1562   H    0.63910   0.90893   0.97758   1.000
    H1563   H    0.59165   0.92451   0.99335   1.000
    H1564   H    0.72592   0.99270   0.93941   1.000
    H1565   H    0.70310   0.03548   0.94517   1.000
    H1566   H    0.69105   0.02072   0.88186   1.000
    H1567   H    0.66869   0.06289   0.88740   1.000
    C1568   C    0.82760   0.78908   0.70277   1.000
    C1569   C    0.88898   0.85045   0.73753   1.000
    C1570   C    0.87397   0.83545   0.74597   1.000
    C1571   C    0.93321   0.84479   0.82254   1.000
    C1572   C    0.93773   0.86780   0.77511   1.000
    C1573   C    0.93911   0.84359   0.79833   1.000
    C1574   C    0.94542   0.81932   0.79696   1.000
    C1575   C    0.06406   0.04163   0.60157   1.000
    C1576   C    0.09064   0.99695   0.62499   1.000
    C1577   C    0.06782   0.02205   0.62506   1.000
    C1578   C    0.04855   0.02610   0.64857   1.000
    C1579   C    0.08703   0.98201   0.54484   1.000
    C1580   C    0.10596   0.95039   0.58169   1.000
    C1581   C    0.09130   0.95760   0.56470   1.000
    C1582   C    0.07319   0.98848   0.52917   1.000
    C1583   C    0.04690   0.97801   0.51739   1.000
    C1584   C    0.06325   0.97073   0.53274   1.000
    C1585   C    0.08149   0.93984   0.56810   1.000
    C1586   C    0.06778   0.94626   0.55243   1.000
    C1587   C    0.96575   0.92736   0.62901   1.000
    C1588   C    0.97480   0.93637   0.60159   1.000
    C1589   C    0.92776   0.00806   0.71368   1.000
    C1590   C    0.90834   0.97696   0.72170   1.000
    H1591   H    0.90963   0.84083   0.73468   1.000
    H1592   H    0.88351   0.81471   0.74927   1.000
    H1593   H    0.92826   0.86305   0.82446   1.000
    H1594   H    0.95001   0.81764   0.77869   1.000
    H1595   H    0.07824   0.03939   0.58302   1.000
    H1596   H    0.05050   0.01158   0.66710   1.000
    H1597   H    0.09421   0.99626   0.54151   1.000
    H1598   H    0.07002   0.00759   0.51443   1.000
    H1599   H    0.08433   0.92083   0.58302   1.000
    H1600   H    0.06039   0.93203   0.55606   1.000
    H1601   H    0.97758   0.90893   0.63910   1.000
    H1602   H    0.99335   0.92451   0.59165   1.000
    H1603   H    0.93941   0.99270   0.72592   1.000
    H1604   H    0.94517   0.03548   0.70310   1.000
    H1605   H    0.88186   0.02072   0.69105   1.000
    H1606   H    0.88740   0.06289   0.66869   1.000
    C1607   C    0.78908   0.82760   0.68056   1.000
    C1608   C    0.85045   0.88898   0.52304   1.000
    C1609   C    0.83545   0.87397   0.54461   1.000
    C1610   C    0.84479   0.93321   0.39946   1.000
    C1611   C    0.86780   0.93773   0.41937   1.000
    C1612   C    0.84359   0.93911   0.41896   1.000
    C1613   C    0.81932   0.94542   0.43830   1.000
    C1614   C    0.04163   0.06406   0.29274   1.000
    C1615   C    0.99695   0.09064   0.28742   1.000
    C1616   C    0.02205   0.06782   0.28506   1.000
    C1617   C    0.02610   0.04855   0.27678   1.000
    C1618   C    0.98201   0.08703   0.38611   1.000
    C1619   C    0.95039   0.10596   0.36196   1.000
    C1620   C    0.95760   0.09130   0.38640   1.000
    C1621   C    0.98848   0.07319   0.40915   1.000
    C1622   C    0.97801   0.04690   0.45770   1.000
    C1623   C    0.97073   0.06325   0.43328   1.000
    C1624   C    0.93984   0.08149   0.41057   1.000
    C1625   C    0.94626   0.06778   0.43353   1.000
    C1626   C    0.92736   0.96575   0.47788   1.000
    C1627   C    0.93637   0.97480   0.48724   1.000
    C1628   C    0.00806   0.92776   0.35050   1.000
    C1629   C    0.97696   0.90834   0.39300   1.000
    C1630   C    0.00328   0.91028   0.37631   1.000
    C1631   C    0.03250   0.93111   0.33577   1.000
    C1632   C    0.91743   0.17204   0.32862   1.000
    C1633   C    0.05253   0.91701   0.34661   1.000
    C1634   C    0.02362   0.89562   0.38669   1.000
    C1635   C    0.04787   0.89889   0.37206   1.000
    O1636   O    0.78897   0.82441   0.63876   1.000
    O1637   O    0.88117   0.91673   0.47735   1.000
    O1638   O    0.80648   0.84199   0.58630   1.000
    O1639   O    0.86630   0.94363   0.43680   1.000
    O1640   O    0.93031   0.88918   0.40227   1.000
    O1641   O    0.99374   0.10659   0.29648   1.000
    O1642   O    0.96902   0.15715   0.27054   1.000
    O1643   O    0.96610   0.11604   0.34063   1.000
    O1644   O    0.92851   0.10795   0.36353   1.000
    O1645   O    0.00073   0.04203   0.45664   1.000
    O1646   O    0.96133   0.03782   0.47857   1.000
    O1647   O    0.91074   0.94621   0.45860   1.000
    O1648   O    0.95654   0.99199   0.50396   1.000
    O1649   O    0.95984   0.91888   0.38238   1.000
    O1650   O    0.89668   0.97254   0.41736   1.000
    O1651   O    0.94145   0.16590   0.31492   1.000
    O1652   O    0.91093   0.09263   0.34586   1.000
    H1653   H    0.77378   0.84271   0.67253   1.000
    H1654   H    0.84083   0.90963   0.51485   1.000
    H1655   H    0.81471   0.88351   0.55251   1.000
    H1656   H    0.86305   0.92826   0.38423   1.000
    H1657   H    0.81764   0.95001   0.45366   1.000
    H1658   H    0.03939   0.07824   0.29936   1.000
    H1659   H    0.01158   0.05050   0.27082   1.000
    H1660   H    0.99626   0.09421   0.36801   1.000
    H1661   H    0.00759   0.07002   0.40797   1.000
    H1662   H    0.92083   0.08433   0.41181   1.000
    H1663   H    0.93203   0.06039   0.45151   1.000
    H1664   H    0.90893   0.97758   0.47439   1.000
    H1665   H    0.92451   0.99335   0.49049   1.000
    H1666   H    0.99270   0.93941   0.34198   1.000
    H1667   H    0.03548   0.94517   0.31624   1.000
    H1668   H    0.02072   0.88186   0.40637   1.000
    H1669   H    0.06289   0.88740   0.38102   1.000
    C1670   C    0.70277   0.68056   0.82760   1.000
    C1671   C    0.73753   0.52304   0.88898   1.000
    C1672   C    0.74597   0.54461   0.87397   1.000
    C1673   C    0.82254   0.39946   0.93321   1.000
    C1674   C    0.77511   0.41937   0.93773   1.000
    C1675   C    0.79833   0.41896   0.93911   1.000
    C1676   C    0.79696   0.43830   0.94542   1.000
    C1677   C    0.60157   0.29274   0.06406   1.000
    C1678   C    0.62499   0.28742   0.09064   1.000
    C1679   C    0.62506   0.28506   0.06782   1.000
    C1680   C    0.64857   0.27678   0.04855   1.000
    C1681   C    0.54484   0.38611   0.08703   1.000
    C1682   C    0.58169   0.36196   0.10596   1.000
    C1683   C    0.56470   0.38640   0.09130   1.000
    C1684   C    0.52917   0.40915   0.07319   1.000
    C1685   C    0.51739   0.45770   0.04690   1.000
    C1686   C    0.53274   0.43328   0.06325   1.000
    C1687   C    0.56810   0.41057   0.08149   1.000
    C1688   C    0.55243   0.43353   0.06778   1.000
    C1689   C    0.62901   0.47788   0.96575   1.000
    C1690   C    0.60159   0.48724   0.97480   1.000
    C1691   C    0.71368   0.35050   0.92776   1.000
    C1692   C    0.72170   0.39300   0.90834   1.000
    C1693   C    0.71013   0.37631   0.91028   1.000
    C1694   C    0.70062   0.33577   0.93111   1.000
    C1695   C    0.58192   0.32862   0.17204   1.000
    C1696   C    0.68385   0.34661   0.91701   1.000
    C1697   C    0.69408   0.38669   0.89562   1.000
    C1698   C    0.68119   0.37206   0.89889   1.000
    O1699   O    0.74786   0.63876   0.82441   1.000
    O1700   O    0.72475   0.47735   0.91673   1.000
    O1701   O    0.76523   0.58630   0.84199   1.000
    O1702   O    0.75327   0.43680   0.94363   1.000
    O1703   O    0.77824   0.40227   0.88918   1.000
    O1704   O    0.60319   0.29648   0.10659   1.000
    O1705   O    0.60330   0.27054   0.15715   1.000
    O1706   O    0.57723   0.34063   0.11604   1.000
    O1707   O    0.60000   0.36353   0.10795   1.000
    O1708   O    0.50060   0.45664   0.04203   1.000
    O1709   O    0.52229   0.47857   0.03782   1.000
    O1710   O    0.68444   0.45860   0.94621   1.000
    O1711   O    0.54751   0.50396   0.99199   1.000
    O1712   O    0.73889   0.38238   0.91888   1.000
    O1713   O    0.71343   0.41736   0.97254   1.000
    O1714   O    0.57773   0.31492   0.16590   1.000
    O1715   O    0.65057   0.34586   0.09263   1.000
    H1716   H    0.71098   0.67253   0.84271   1.000
    H1717   H    0.73468   0.51485   0.90963   1.000
    H1718   H    0.74927   0.55251   0.88351   1.000
    H1719   H    0.82446   0.38423   0.92826   1.000
    H1720   H    0.77869   0.45366   0.95001   1.000
    H1721   H    0.58302   0.29936   0.07824   1.000
    H1722   H    0.66710   0.27082   0.05050   1.000
    H1723   H    0.54151   0.36801   0.09421   1.000
    H1724   H    0.51443   0.40797   0.07002   1.000
    H1725   H    0.58302   0.41181   0.08433   1.000
    H1726   H    0.55606   0.45151   0.06039   1.000
    H1727   H    0.63910   0.47439   0.97758   1.000
    H1728   H    0.59165   0.49049   0.99335   1.000
    H1729   H    0.72592   0.34198   0.93941   1.000
    H1730   H    0.70310   0.31624   0.94517   1.000
    H1731   H    0.69105   0.40637   0.88186   1.000
    H1732   H    0.66869   0.38102   0.88740   1.000
    C1733   C    0.68056   0.70277   0.78908   1.000
    C1734   C    0.52304   0.73753   0.85045   1.000
    C1735   C    0.54461   0.74597   0.83545   1.000
    C1736   C    0.39946   0.82254   0.84479   1.000
    C1737   C    0.41937   0.77511   0.86780   1.000
    C1738   C    0.41896   0.79833   0.84359   1.000
    C1739   C    0.43830   0.79696   0.81932   1.000
    C1740   C    0.29274   0.60157   0.04163   1.000
    C1741   C    0.28742   0.62499   0.99695   1.000
    C1742   C    0.28506   0.62506   0.02205   1.000
    C1743   C    0.27678   0.64857   0.02610   1.000
    C1744   C    0.38611   0.54484   0.98201   1.000
    C1745   C    0.36196   0.58169   0.95039   1.000
    C1746   C    0.38640   0.56470   0.95760   1.000
    C1747   C    0.40915   0.52917   0.98848   1.000
    C1748   C    0.45770   0.51739   0.97801   1.000
    C1749   C    0.43328   0.53274   0.97073   1.000
    C1750   C    0.41057   0.56810   0.93984   1.000
    C1751   C    0.43353   0.55243   0.94626   1.000
    C1752   C    0.47788   0.62901   0.92736   1.000
    C1753   C    0.48724   0.60159   0.93637   1.000
    C1754   C    0.35050   0.71368   0.00806   1.000
    C1755   C    0.39300   0.72170   0.97696   1.000
    C1756   C    0.37631   0.71013   0.00328   1.000
    C1757   C    0.33577   0.70062   0.03250   1.000
    C1758   C    0.32862   0.58192   0.91743   1.000
    C1759   C    0.34661   0.68385   0.05253   1.000
    C1760   C    0.38669   0.69408   0.02362   1.000
    C1761   C    0.37206   0.68119   0.04787   1.000
    O1762   O    0.63876   0.74786   0.78897   1.000
    O1763   O    0.47735   0.72475   0.88117   1.000
    O1764   O    0.58630   0.76523   0.80648   1.000
    O1765   O    0.43680   0.75327   0.86630   1.000
    O1766   O    0.40227   0.77824   0.93031   1.000
    O1767   O    0.29648   0.60319   0.99374   1.000
    O1768   O    0.27054   0.60330   0.96902   1.000
    O1769   O    0.34063   0.57723   0.96610   1.000
    O1770   O    0.36353   0.60000   0.92851   1.000
    O1771   O    0.45664   0.50060   0.00073   1.000
    O1772   O    0.47857   0.52229   0.96133   1.000
    O1773   O    0.45860   0.68444   0.91074   1.000
    O1774   O    0.50396   0.54751   0.95654   1.000
    O1775   O    0.38238   0.73889   0.95984   1.000
    O1776   O    0.41736   0.71343   0.89668   1.000
    O1777   O    0.31492   0.57773   0.94145   1.000
    O1778   O    0.34586   0.65057   0.91093   1.000
    H1779   H    0.67253   0.71098   0.77378   1.000
    H1780   H    0.51485   0.73468   0.84083   1.000
    H1781   H    0.55251   0.74927   0.81471   1.000
    H1782   H    0.38423   0.82446   0.86305   1.000
    H1783   H    0.45366   0.77869   0.81764   1.000
    H1784   H    0.29936   0.58302   0.03939   1.000
    H1785   H    0.27082   0.66710   0.01158   1.000
    H1786   H    0.36801   0.54151   0.99626   1.000
    H1787   H    0.40797   0.51443   0.00759   1.000
    H1788   H    0.41181   0.58302   0.92083   1.000
    H1789   H    0.45151   0.55606   0.93203   1.000
    H1790   H    0.47439   0.63910   0.90893   1.000
    H1791   H    0.49049   0.59165   0.92451   1.000
    H1792   H    0.34198   0.72592   0.99270   1.000
    H1793   H    0.31624   0.70310   0.03548   1.000
    H1794   H    0.40637   0.69105   0.02072   1.000
    H1795   H    0.38102   0.66869   0.06289   1.000
    C1796   C    0.70277   0.82760   0.78908   1.000
    C1797   C    0.73753   0.88898   0.85045   1.000
    C1798   C    0.74597   0.87397   0.83545   1.000
    C1799   C    0.82254   0.93321   0.84479   1.000
    C1800   C    0.77511   0.93773   0.86780   1.000
    C1801   C    0.79833   0.93911   0.84359   1.000
    C1802   C    0.79696   0.94542   0.81932   1.000
    C1803   C    0.60157   0.06406   0.04163   1.000
    C1804   C    0.62499   0.09064   0.99695   1.000
    C1805   C    0.62506   0.06782   0.02205   1.000
    C1806   C    0.64857   0.04855   0.02610   1.000
    C1807   C    0.54484   0.08703   0.98201   1.000
    C1808   C    0.58169   0.10596   0.95039   1.000
    C1809   C    0.56470   0.09130   0.95760   1.000
    C1810   C    0.52917   0.07319   0.98848   1.000
    C1811   C    0.51739   0.04690   0.97801   1.000
    C1812   C    0.53274   0.06325   0.97073   1.000
    C1813   C    0.56810   0.08149   0.93984   1.000
    C1814   C    0.55243   0.06778   0.94626   1.000
    C1815   C    0.62901   0.96575   0.92736   1.000
    C1816   C    0.60159   0.97480   0.93637   1.000
    C1817   C    0.71368   0.92776   0.00806   1.000
    C1818   C    0.72170   0.90834   0.97696   1.000
    C1819   C    0.71013   0.91028   0.00328   1.000
    C1820   C    0.70062   0.93111   0.03250   1.000
    C1821   C    0.58192   0.17204   0.91743   1.000
    C1822   C    0.68385   0.91701   0.05253   1.000
    C1823   C    0.69408   0.89562   0.02362   1.000
    C1824   C    0.68119   0.89889   0.04787   1.000
    O1825   O    0.74786   0.82441   0.78897   1.000
    O1826   O    0.72475   0.91673   0.88117   1.000
    O1827   O    0.76523   0.84199   0.80648   1.000
    O1828   O    0.75327   0.94363   0.86630   1.000
    O1829   O    0.77824   0.88918   0.93031   1.000
    O1830   O    0.60319   0.10659   0.99374   1.000
    O1831   O    0.60330   0.15715   0.96902   1.000
    O1832   O    0.57723   0.11604   0.96610   1.000
    O1833   O    0.60000   0.10795   0.92851   1.000
    O1834   O    0.50060   0.04203   0.00073   1.000
    O1835   O    0.52229   0.03782   0.96133   1.000
    O1836   O    0.68444   0.94621   0.91074   1.000
    O1837   O    0.54751   0.99199   0.95654   1.000
    O1838   O    0.73889   0.91888   0.95984   1.000
    O1839   O    0.71343   0.97254   0.89668   1.000
    O1840   O    0.57773   0.16590   0.94145   1.000
    O1841   O    0.65057   0.09263   0.91093   1.000
    H1842   H    0.71098   0.84271   0.77378   1.000
    H1843   H    0.73468   0.90963   0.84083   1.000
    H1844   H    0.74927   0.88351   0.81471   1.000
    H1845   H    0.82446   0.92826   0.86305   1.000
    H1846   H    0.77869   0.95001   0.81764   1.000
    H1847   H    0.58302   0.07824   0.03939   1.000
    H1848   H    0.66710   0.05050   0.01158   1.000
    H1849   H    0.54151   0.09421   0.99626   1.000
    H1850   H    0.51443   0.07002   0.00759   1.000
    H1851   H    0.58302   0.08433   0.92083   1.000
    H1852   H    0.55606   0.06039   0.93203   1.000
    H1853   H    0.63910   0.97758   0.90893   1.000
    H1854   H    0.59165   0.99335   0.92451   1.000
    H1855   H    0.72592   0.93941   0.99270   1.000
    H1856   H    0.70310   0.94517   0.03548   1.000
    H1857   H    0.69105   0.88186   0.02072   1.000
    H1858   H    0.66869   0.88740   0.06289   1.000
    C1859   C    0.68056   0.78908   0.82760   1.000
    C1860   C    0.52304   0.85045   0.88898   1.000
    C1861   C    0.54461   0.83545   0.87397   1.000
    C1862   C    0.39946   0.84479   0.93321   1.000
    C1863   C    0.41937   0.86780   0.93773   1.000
    C1864   C    0.41896   0.84359   0.93911   1.000
    C1865   C    0.43830   0.81932   0.94542   1.000
    C1866   C    0.29274   0.04163   0.06406   1.000
    C1867   C    0.28742   0.99695   0.09064   1.000
    C1868   C    0.28506   0.02205   0.06782   1.000
    C1869   C    0.27678   0.02610   0.04855   1.000
    C1870   C    0.38611   0.98201   0.08703   1.000
    C1871   C    0.36196   0.95039   0.10596   1.000
    C1872   C    0.38640   0.95760   0.09130   1.000
    C1873   C    0.40915   0.98848   0.07319   1.000
    C1874   C    0.45770   0.97801   0.04690   1.000
    C1875   C    0.43328   0.97073   0.06325   1.000
    C1876   C    0.41057   0.93984   0.08149   1.000
    C1877   C    0.43353   0.94626   0.06778   1.000
    C1878   C    0.47788   0.92736   0.96575   1.000
    C1879   C    0.48724   0.93637   0.97480   1.000
    C1880   C    0.35050   0.00806   0.92776   1.000
    C1881   C    0.39300   0.97696   0.90834   1.000
    C1882   C    0.37631   0.00328   0.91028   1.000
    C1883   C    0.33577   0.03250   0.93111   1.000
    C1884   C    0.32862   0.91743   0.17204   1.000
    C1885   C    0.34661   0.05253   0.91701   1.000
    C1886   C    0.38669   0.02362   0.89562   1.000
    C1887   C    0.37206   0.04787   0.89889   1.000
    O1888   O    0.63876   0.78897   0.82441   1.000
    O1889   O    0.47735   0.88117   0.91673   1.000
    O1890   O    0.58630   0.80648   0.84199   1.000
    O1891   O    0.43680   0.86630   0.94363   1.000
    O1892   O    0.40227   0.93031   0.88918   1.000
    O1893   O    0.29648   0.99374   0.10659   1.000
    O1894   O    0.27054   0.96902   0.15715   1.000
    O1895   O    0.34063   0.96610   0.11604   1.000
    O1896   O    0.36353   0.92851   0.10795   1.000
    O1897   O    0.45664   0.00073   0.04203   1.000
    O1898   O    0.47857   0.96133   0.03782   1.000
    O1899   O    0.45860   0.91074   0.94621   1.000
    O1900   O    0.50396   0.95654   0.99199   1.000
    O1901   O    0.38238   0.95984   0.91888   1.000
    O1902   O    0.41736   0.89668   0.97254   1.000
    O1903   O    0.31492   0.94145   0.16590   1.000
    O1904   O    0.34586   0.91093   0.09263   1.000
    H1905   H    0.67253   0.77378   0.84271   1.000
    H1906   H    0.51485   0.84083   0.90963   1.000
    H1907   H    0.55251   0.81471   0.88351   1.000
    H1908   H    0.38423   0.86305   0.92826   1.000
    H1909   H    0.45366   0.81764   0.95001   1.000
    H1910   H    0.29936   0.03939   0.07824   1.000
    H1911   H    0.27082   0.01158   0.05050   1.000
    H1912   H    0.36801   0.99626   0.09421   1.000
    H1913   H    0.40797   0.00759   0.07002   1.000
    H1914   H    0.41181   0.92083   0.08433   1.000
    H1915   H    0.45151   0.93203   0.06039   1.000
    H1916   H    0.47439   0.90893   0.97758   1.000
    H1917   H    0.49049   0.92451   0.99335   1.000
    H1918   H    0.34198   0.99270   0.93941   1.000
    H1919   H    0.31624   0.03548   0.94517   1.000
    H1920   H    0.40637   0.02072   0.88186   1.000
    H1921   H    0.38102   0.06289   0.88740   1.000
    C1922   C    0.82760   0.70277   0.68056   1.000
    C1923   C    0.88898   0.73753   0.52304   1.000
    C1924   C    0.87397   0.74597   0.54461   1.000
    C1925   C    0.93321   0.82254   0.39946   1.000
    C1926   C    0.93773   0.77511   0.41937   1.000
    C1927   C    0.93911   0.79833   0.41896   1.000
    C1928   C    0.94542   0.79696   0.43830   1.000
    C1929   C    0.06406   0.60157   0.29274   1.000
    C1930   C    0.09064   0.62499   0.28742   1.000
    C1931   C    0.06782   0.62506   0.28506   1.000
    C1932   C    0.04855   0.64857   0.27678   1.000
    C1933   C    0.08703   0.54484   0.38611   1.000
    C1934   C    0.10596   0.58169   0.36196   1.000
    C1935   C    0.09130   0.56470   0.38640   1.000
    C1936   C    0.07319   0.52917   0.40915   1.000
    C1937   C    0.04690   0.51739   0.45770   1.000
    C1938   C    0.06325   0.53274   0.43328   1.000
    C1939   C    0.08149   0.56810   0.41057   1.000
    C1940   C    0.06778   0.55243   0.43353   1.000
    C1941   C    0.96575   0.62901   0.47788   1.000
    C1942   C    0.97480   0.60159   0.48724   1.000
    C1943   C    0.92776   0.71368   0.35050   1.000
    C1944   C    0.90834   0.72170   0.39300   1.000
    C1945   C    0.91028   0.71013   0.37631   1.000
    C1946   C    0.93111   0.70062   0.33577   1.000
    C1947   C    0.17204   0.58192   0.32862   1.000
    C1948   C    0.91701   0.68385   0.34661   1.000
    C1949   C    0.89562   0.69408   0.38669   1.000
    C1950   C    0.89889   0.68119   0.37206   1.000
    O1951   O    0.82441   0.74786   0.63876   1.000
    O1952   O    0.91673   0.72475   0.47735   1.000
    O1953   O    0.84199   0.76523   0.58630   1.000
    O1954   O    0.94363   0.75327   0.43680   1.000
    O1955   O    0.88918   0.77824   0.40227   1.000
    O1956   O    0.10659   0.60319   0.29648   1.000
    O1957   O    0.15715   0.60330   0.27054   1.000
    O1958   O    0.11604   0.57723   0.34063   1.000
    O1959   O    0.10795   0.60000   0.36353   1.000
    O1960   O    0.04203   0.50060   0.45664   1.000
    O1961   O    0.03782   0.52229   0.47857   1.000
    O1962   O    0.94621   0.68444   0.45860   1.000
    O1963   O    0.99199   0.54751   0.50396   1.000
    O1964   O    0.91888   0.73889   0.38238   1.000
    O1965   O    0.97254   0.71343   0.41736   1.000
    O1966   O    0.16590   0.57773   0.31492   1.000
    O1967   O    0.09263   0.65057   0.34586   1.000
    H1968   H    0.84271   0.71098   0.67253   1.000
    H1969   H    0.90963   0.73468   0.51485   1.000
    H1970   H    0.88351   0.74927   0.55251   1.000
    H1971   H    0.92826   0.82446   0.38423   1.000
    H1972   H    0.95001   0.77869   0.45366   1.000
    H1973   H    0.07824   0.58302   0.29936   1.000
    H1974   H    0.05050   0.66710   0.27082   1.000
    H1975   H    0.09421   0.54151   0.36801   1.000
    H1976   H    0.07002   0.51443   0.40797   1.000
    H1977   H    0.08433   0.58302   0.41181   1.000
    H1978   H    0.06039   0.55606   0.45151   1.000
    H1979   H    0.97758   0.63910   0.47439   1.000
    H1980   H    0.99335   0.59165   0.49049   1.000
    H1981   H    0.93941   0.72592   0.34198   1.000
    H1982   H    0.94517   0.70310   0.31624   1.000
    H1983   H    0.88186   0.69105   0.40637   1.000
    H1984   H    0.88740   0.66869   0.38102   1.000
    C1985   C    0.78908   0.68056   0.70277   1.000
    C1986   C    0.85045   0.52304   0.73753   1.000
    C1987   C    0.83545   0.54461   0.74597   1.000
    C1988   C    0.84479   0.39946   0.82254   1.000
    C1989   C    0.86780   0.41937   0.77511   1.000
    C1990   C    0.84359   0.41896   0.79833   1.000
    C1991   C    0.81932   0.43830   0.79696   1.000
    C1992   C    0.04163   0.29274   0.60157   1.000
    C1993   C    0.99695   0.28742   0.62499   1.000
    C1994   C    0.02205   0.28506   0.62506   1.000
    C1995   C    0.02610   0.27678   0.64857   1.000
    C1996   C    0.98201   0.38611   0.54484   1.000
    C1997   C    0.95039   0.36196   0.58169   1.000
    C1998   C    0.95760   0.38640   0.56470   1.000
    C1999   C    0.98848   0.40915   0.52917   1.000
    C2000   C    0.97801   0.45770   0.51739   1.000
    C2001   C    0.97073   0.43328   0.53274   1.000
    C2002   C    0.93984   0.41057   0.56810   1.000
    C2003   C    0.94626   0.43353   0.55243   1.000
    C2004   C    0.92736   0.47788   0.62901   1.000
    C2005   C    0.93637   0.48724   0.60159   1.000
    C2006   C    0.00806   0.35050   0.71368   1.000
    C2007   C    0.97696   0.39300   0.72170   1.000
    C2008   C    0.00328   0.37631   0.71013   1.000
    C2009   C    0.03250   0.33577   0.70062   1.000
    C2010   C    0.91743   0.32862   0.58192   1.000
    C2011   C    0.05253   0.34661   0.68385   1.000
    C2012   C    0.02362   0.38669   0.69408   1.000
    C2013   C    0.04787   0.37206   0.68119   1.000
    O2014   O    0.78897   0.63876   0.74786   1.000
    O2015   O    0.88117   0.47735   0.72475   1.000
    C2016   C    0.78908   0.70277   0.82760   1.000
    C2017   C    0.85045   0.73753   0.88898   1.000
    C2018   C    0.83545   0.74597   0.87397   1.000
    C2019   C    0.84479   0.82254   0.93321   1.000
    C2020   C    0.86780   0.77511   0.93773   1.000
    C2021   C    0.84359   0.79833   0.93911   1.000
    C2022   C    0.81932   0.79696   0.94542   1.000
    C2023   C    0.04163   0.60157   0.06406   1.000
    C2024   C    0.99695   0.62499   0.09064   1.000
    C2025   C    0.02205   0.62506   0.06782   1.000
    C2026   C    0.02610   0.64857   0.04855   1.000
    C2027   C    0.98201   0.54484   0.08703   1.000
    C2028   C    0.95039   0.58169   0.10596   1.000
    C2029   C    0.95760   0.56470   0.09130   1.000
    C2030   C    0.98848   0.52917   0.07319   1.000
    C2031   C    0.97801   0.51739   0.04690   1.000
    C2032   C    0.97073   0.53274   0.06325   1.000
    C2033   C    0.93984   0.56810   0.08149   1.000
    C2034   C    0.94626   0.55243   0.06778   1.000
    C2035   C    0.92736   0.62901   0.96575   1.000
    C2036   C    0.93637   0.60159   0.97480   1.000
    C2037   C    0.00806   0.71368   0.92776   1.000
    C2038   C    0.97696   0.72170   0.90834   1.000
    C2039   C    0.00328   0.71013   0.91028   1.000
    C2040   C    0.03250   0.70062   0.93111   1.000
    C2041   C    0.91743   0.58192   0.17204   1.000
    C2042   C    0.05253   0.68385   0.91701   1.000
    C2043   C    0.02362   0.69408   0.89562   1.000
    C2044   C    0.04787   0.68119   0.89889   1.000
    O2045   O    0.78897   0.74786   0.82441   1.000
    O2046   O    0.88117   0.72475   0.91673   1.000
    O2047   O    0.80648   0.76523   0.84199   1.000
    O2048   O    0.86630   0.75327   0.94363   1.000
    O2049   O    0.93031   0.77824   0.88918   1.000
    O2050   O    0.99374   0.60319   0.10659   1.000
    O2051   O    0.96902   0.60330   0.15715   1.000
    O2052   O    0.96610   0.57723   0.11604   1.000
    O2053   O    0.92851   0.60000   0.10795   1.000
    O2054   O    0.00073   0.50060   0.04203   1.000
    O2055   O    0.96133   0.52229   0.03782   1.000
    O2056   O    0.91074   0.68444   0.94621   1.000
    O2057   O    0.95654   0.54751   0.99199   1.000
    O2058   O    0.95984   0.73889   0.91888   1.000
    O2059   O    0.89668   0.71343   0.97254   1.000
    O2060   O    0.94145   0.57773   0.16590   1.000
    O2061   O    0.91093   0.65057   0.09263   1.000
    H2062   H    0.77378   0.71098   0.84271   1.000
    H2063   H    0.84083   0.73468   0.90963   1.000
    H2064   H    0.81471   0.74927   0.88351   1.000
    H2065   H    0.86305   0.82446   0.92826   1.000
    H2066   H    0.81764   0.77869   0.95001   1.000
    H2067   H    0.03939   0.58302   0.07824   1.000
    H2068   H    0.01158   0.66710   0.05050   1.000
    H2069   H    0.99626   0.54151   0.09421   1.000
    H2070   H    0.00759   0.51443   0.07002   1.000
    H2071   H    0.92083   0.58302   0.08433   1.000
    H2072   H    0.93203   0.55606   0.06039   1.000
    H2073   H    0.90893   0.63910   0.97758   1.000
    H2074   H    0.92451   0.59165   0.99335   1.000
    H2075   H    0.99270   0.72592   0.93941   1.000
    H2076   H    0.03548   0.70310   0.94517   1.000
    H2077   H    0.02072   0.69105   0.88186   1.000
    H2078   H    0.06289   0.66869   0.88740   1.000
    C2079   C    0.82760   0.68056   0.78908   1.000
    C2080   C    0.88898   0.52304   0.85045   1.000
    C2081   C    0.87397   0.54461   0.83545   1.000
    C2082   C    0.93321   0.39946   0.84479   1.000
    C2083   C    0.93773   0.41937   0.86780   1.000
    C2084   C    0.93911   0.41896   0.84359   1.000
    C2085   C    0.94542   0.43830   0.81932   1.000
    C2086   C    0.06406   0.29274   0.04163   1.000
    C2087   C    0.09064   0.28742   0.99695   1.000
    C2088   C    0.06782   0.28506   0.02205   1.000
    C2089   C    0.04855   0.27678   0.02610   1.000
    C2090   C    0.08703   0.38611   0.98201   1.000
    C2091   C    0.10596   0.36196   0.95039   1.000
    C2092   C    0.09130   0.38640   0.95760   1.000
    C2093   C    0.07319   0.40915   0.98848   1.000
    C2094   C    0.04690   0.45770   0.97801   1.000
    C2095   C    0.06325   0.43328   0.97073   1.000
    C2096   C    0.08149   0.41057   0.93984   1.000
    C2097   C    0.06778   0.43353   0.94626   1.000
    C2098   C    0.96575   0.47788   0.92736   1.000
    C2099   C    0.97480   0.48724   0.93637   1.000
    C2100   C    0.92776   0.35050   0.00806   1.000
    C2101   C    0.90834   0.39300   0.97696   1.000
    C2102   C    0.91028   0.37631   0.00328   1.000
    C2103   C    0.93111   0.33577   0.03250   1.000
    C2104   C    0.17204   0.32862   0.91743   1.000
    C2105   C    0.91701   0.34661   0.05253   1.000
    C2106   C    0.89562   0.38669   0.02362   1.000
    C2107   C    0.89889   0.37206   0.04787   1.000
    O2108   O    0.82441   0.63876   0.78897   1.000
    O2109   O    0.91673   0.47735   0.88117   1.000
    O2110   O    0.84199   0.58630   0.80648   1.000
    O2111   O    0.94363   0.43680   0.86630   1.000
    O2112   O    0.88918   0.40227   0.93031   1.000
    O2113   O    0.10659   0.29648   0.99374   1.000
    O2114   O    0.15715   0.27054   0.96902   1.000
    O2115   O    0.11604   0.34063   0.96610   1.000
    O2116   O    0.10795   0.36353   0.92851   1.000
    O2117   O    0.04203   0.45664   0.00073   1.000
    O2118   O    0.03782   0.47857   0.96133   1.000
    O2119   O    0.94621   0.45860   0.91074   1.000
    O2120   O    0.99199   0.50396   0.95654   1.000
    O2121   O    0.91888   0.38238   0.95984   1.000
    O2122   O    0.97254   0.41736   0.89668   1.000
    O2123   O    0.16590   0.31492   0.94145   1.000
    O2124   O    0.09263   0.34586   0.91093   1.000
    H2125   H    0.84271   0.67253   0.77378   1.000
    H2126   H    0.90963   0.51485   0.84083   1.000
    H2127   H    0.88351   0.55251   0.81471   1.000
    H2128   H    0.92826   0.38423   0.86305   1.000
    H2129   H    0.95001   0.45366   0.81764   1.000
    H2130   H    0.07824   0.29936   0.03939   1.000
    H2131   H    0.05050   0.27082   0.01158   1.000
    H2132   H    0.09421   0.36801   0.99626   1.000
    H2133   H    0.07002   0.40797   0.00759   1.000
    H2134   H    0.08433   0.41181   0.92083   1.000
    H2135   H    0.06039   0.45151   0.93203   1.000
    H2136   H    0.97758   0.47439   0.90893   1.000
    H2137   H    0.99335   0.49049   0.92451   1.000
    H2138   H    0.93941   0.34198   0.99270   1.000
    H2139   H    0.94517   0.31624   0.03548   1.000
    H2140   H    0.88186   0.40637   0.02072   1.000
    H2141   H    0.88740   0.38102   0.06289   1.000
    C2142   C    0.68056   0.82760   0.70277   1.000
    C2143   C    0.52304   0.88898   0.73753   1.000
    C2144   C    0.54461   0.87397   0.74597   1.000
    C2145   C    0.39946   0.93321   0.82254   1.000
    C2146   C    0.41937   0.93773   0.77511   1.000
    C2147   C    0.41896   0.93911   0.79833   1.000
    C2148   C    0.43830   0.94542   0.79696   1.000
    C2149   C    0.29274   0.06406   0.60157   1.000
    C2150   C    0.28742   0.09064   0.62499   1.000
    C2151   C    0.28506   0.06782   0.62506   1.000
    C2152   C    0.27678   0.04855   0.64857   1.000
    C2153   C    0.38611   0.08703   0.54484   1.000
    C2154   C    0.36196   0.10596   0.58169   1.000
    C2155   C    0.38640   0.09130   0.56470   1.000
    C2156   C    0.40915   0.07319   0.52917   1.000
    C2157   C    0.45770   0.04690   0.51739   1.000
    C2158   C    0.43328   0.06325   0.53274   1.000
    C2159   C    0.41057   0.08149   0.56810   1.000
    C2160   C    0.43353   0.06778   0.55243   1.000
    C2161   C    0.47788   0.96575   0.62901   1.000
    C2162   C    0.48724   0.97480   0.60159   1.000
    C2163   C    0.35050   0.92776   0.71368   1.000
    C2164   C    0.39300   0.90834   0.72170   1.000
    C2165   C    0.37631   0.91028   0.71013   1.000
    C2166   C    0.33577   0.93111   0.70062   1.000
    C2167   C    0.32862   0.17204   0.58192   1.000
    C2168   C    0.34661   0.91701   0.68385   1.000
    C2169   C    0.38669   0.89562   0.69408   1.000
    C2170   C    0.37206   0.89889   0.68119   1.000
    O2171   O    0.63876   0.82441   0.74786   1.000
    O2172   O    0.47735   0.91673   0.72475   1.000
    O2173   O    0.58630   0.84199   0.76523   1.000
    O2174   O    0.43680   0.94363   0.75327   1.000
    O2175   O    0.40227   0.88918   0.77824   1.000
    O2176   O    0.29648   0.10659   0.60319   1.000
    O2177   O    0.27054   0.15715   0.60330   1.000
    O2178   O    0.34063   0.11604   0.57723   1.000
    O2179   O    0.36353   0.10795   0.60000   1.000
    O2180   O    0.45664   0.04203   0.50060   1.000
    O2181   O    0.47857   0.03782   0.52229   1.000
    O2182   O    0.45860   0.94621   0.68444   1.000
    O2183   O    0.50396   0.99199   0.54751   1.000
    O2184   O    0.38238   0.91888   0.73889   1.000
    O2185   O    0.41736   0.97254   0.71343   1.000
    O2186   O    0.31492   0.16590   0.57773   1.000
    O2187   O    0.34586   0.09263   0.65057   1.000
    H2188   H    0.67253   0.84271   0.71098   1.000
    H2189   H    0.51485   0.90963   0.73468   1.000
    H2190   H    0.55251   0.88351   0.74927   1.000
    H2191   H    0.38423   0.92826   0.82446   1.000
    H2192   H    0.45366   0.95001   0.77869   1.000
    H2193   H    0.29936   0.07824   0.58302   1.000
    H2194   H    0.27082   0.05050   0.66710   1.000
    H2195   H    0.36801   0.09421   0.54151   1.000
    H2196   H    0.40797   0.07002   0.51443   1.000
    H2197   H    0.41181   0.08433   0.58302   1.000
    H2198   H    0.45151   0.06039   0.55606   1.000
    H2199   H    0.47439   0.97758   0.63910   1.000
    H2200   H    0.49049   0.99335   0.59165   1.000
    H2201   H    0.34198   0.93941   0.72592   1.000
    H2202   H    0.31624   0.94517   0.70310   1.000
    H2203   H    0.40637   0.88186   0.69105   1.000
    H2204   H    0.38102   0.88740   0.66869   1.000
    C2205   C    0.70277   0.78908   0.68056   1.000
    C2206   C    0.73753   0.85045   0.52304   1.000
    C2207   C    0.74597   0.83545   0.54461   1.000
    C2208   C    0.82254   0.84479   0.39946   1.000
    C2209   C    0.77511   0.86780   0.41937   1.000
    C2210   C    0.79833   0.84359   0.41896   1.000
    C2211   C    0.79696   0.81932   0.43830   1.000
    C2212   C    0.60157   0.04163   0.29274   1.000
    C2213   C    0.62499   0.99695   0.28742   1.000
    C2214   C    0.62506   0.02205   0.28506   1.000
    C2215   C    0.64857   0.02610   0.27678   1.000
    C2216   C    0.54484   0.98201   0.38611   1.000
    C2217   C    0.58169   0.95039   0.36196   1.000
    C2218   C    0.56470   0.95760   0.38640   1.000
    C2219   C    0.52917   0.98848   0.40915   1.000
    C2220   C    0.51739   0.97801   0.45770   1.000
    C2221   C    0.53274   0.97073   0.43328   1.000
    C2222   C    0.56810   0.93984   0.41057   1.000
    C2223   C    0.55243   0.94626   0.43353   1.000
    C2224   C    0.62901   0.92736   0.47788   1.000
    C2225   C    0.60159   0.93637   0.48724   1.000
    C2226   C    0.71368   0.00806   0.35050   1.000
    C2227   C    0.72170   0.97696   0.39300   1.000
    C2228   C    0.71013   0.00328   0.37631   1.000
    C2229   C    0.70062   0.03250   0.33577   1.000
    C2230   C    0.58192   0.91743   0.32862   1.000
    C2231   C    0.68385   0.05253   0.34661   1.000
    C2232   C    0.69408   0.02362   0.38669   1.000
    C2233   C    0.68119   0.04787   0.37206   1.000
    O2234   O    0.74786   0.78897   0.63876   1.000
    O2235   O    0.72475   0.88117   0.47735   1.000
    O2236   O    0.76523   0.80648   0.58630   1.000
    O2237   O    0.75327   0.86630   0.43680   1.000
    O2238   O    0.77824   0.93031   0.40227   1.000
    O2239   O    0.60319   0.99374   0.29648   1.000
    O2240   O    0.60330   0.96902   0.27054   1.000
    O2241   O    0.57723   0.96610   0.34063   1.000
    O2242   O    0.60000   0.92851   0.36353   1.000
    O2243   O    0.50060   0.00073   0.45664   1.000
    O2244   O    0.52229   0.96133   0.47857   1.000
    O2245   O    0.68444   0.91074   0.45860   1.000
    O2246   O    0.54751   0.95654   0.50396   1.000
    O2247   O    0.73889   0.95984   0.38238   1.000
    O2248   O    0.71343   0.89668   0.41736   1.000
    O2249   O    0.57773   0.94145   0.31492   1.000
    O2250   O    0.65057   0.91093   0.34586   1.000
    H2251   H    0.71098   0.77378   0.67253   1.000
    H2252   H    0.73468   0.84083   0.51485   1.000
    H2253   H    0.74927   0.81471   0.55251   1.000
    H2254   H    0.82446   0.86305   0.38423   1.000
    H2255   H    0.77869   0.81764   0.45366   1.000
    H2256   H    0.58302   0.03939   0.29936   1.000
    H2257   H    0.66710   0.01158   0.27082   1.000
    H2258   H    0.54151   0.99626   0.36801   1.000
    H2259   H    0.51443   0.00759   0.40797   1.000
    H2260   H    0.58302   0.92083   0.41181   1.000
    H2261   H    0.55606   0.93203   0.45151   1.000
    H2262   H    0.63910   0.90893   0.47439   1.000
    H2263   H    0.59165   0.92451   0.49049   1.000
    H2264   H    0.72592   0.99270   0.34198   1.000
    H2265   H    0.70310   0.03548   0.31624   1.000
    H2266   H    0.69105   0.02072   0.40637   1.000
    H2267   H    0.66869   0.06289   0.38102   1.000
    C2268   C    0.42240   0.46092   0.56944   1.000
    C2269   C    0.36102   0.39955   0.72696   1.000
    C2270   C    0.37603   0.41455   0.70539   1.000
    C2271   C    0.31679   0.40521   0.85054   1.000
    C2272   C    0.31227   0.38220   0.83063   1.000
    C2273   C    0.31089   0.40641   0.83104   1.000
    C2274   C    0.30458   0.43068   0.81170   1.000
    C2275   C    0.18594   0.20837   0.95726   1.000
    C2276   C    0.15936   0.25305   0.96258   1.000
    C2277   C    0.18218   0.22795   0.96494   1.000
    C2278   C    0.20145   0.22390   0.97322   1.000
    C2279   C    0.16297   0.26799   0.86389   1.000
    C2280   C    0.14404   0.29961   0.88804   1.000
    C2281   C    0.15870   0.29240   0.86360   1.000
    C2282   C    0.17681   0.26152   0.84085   1.000
    C2283   C    0.20310   0.27199   0.79230   1.000
    C2284   C    0.18675   0.27927   0.81672   1.000
    C2285   C    0.16851   0.31016   0.83943   1.000
    C2286   C    0.18222   0.30374   0.81647   1.000
    C2287   C    0.28425   0.32264   0.77212   1.000
    C2288   C    0.27520   0.31363   0.76276   1.000
    C2289   C    0.32224   0.24194   0.89950   1.000
    C2290   C    0.34166   0.27304   0.85700   1.000
    C2291   C    0.33972   0.24672   0.87369   1.000
    C2292   C    0.31889   0.21750   0.91423   1.000
    C2293   C    0.07796   0.33257   0.92138   1.000
    C2294   C    0.33299   0.19747   0.90339   1.000
    C2295   C    0.35438   0.22638   0.86331   1.000
    C2296   C    0.35111   0.20213   0.87794   1.000
    O2297   O    0.42559   0.46103   0.61124   1.000
    O2298   O    0.33327   0.36883   0.77265   1.000
    O2299   O    0.40801   0.44352   0.66370   1.000
    O2300   O    0.30637   0.38370   0.81320   1.000
    O2301   O    0.36082   0.31969   0.84773   1.000
    O2302   O    0.14341   0.25626   0.95352   1.000
    O2303   O    0.09285   0.28098   0.97946   1.000
    O2304   O    0.13396   0.28390   0.90937   1.000
    O2305   O    0.14205   0.32149   0.88647   1.000
    O2306   O    0.20797   0.24927   0.79336   1.000
    O2307   O    0.21218   0.28867   0.77143   1.000
    O2308   O    0.30379   0.33926   0.79140   1.000
    O2309   O    0.25801   0.29346   0.74604   1.000
    O2310   O    0.33112   0.29016   0.86762   1.000
    O2311   O    0.27746   0.35332   0.83264   1.000
    O2312   O    0.08410   0.30855   0.93508   1.000
    O2313   O    0.15737   0.33907   0.90414   1.000
    H2314   H    0.40729   0.47622   0.57747   1.000
    H2315   H    0.34037   0.40917   0.73515   1.000
    H2316   H    0.36649   0.43529   0.69749   1.000
    H2317   H    0.32174   0.38695   0.86577   1.000
    H2318   H    0.29999   0.43236   0.79634   1.000
    H2319   H    0.17176   0.21061   0.95064   1.000
    H2320   H    0.19950   0.23842   0.97918   1.000
    H2321   H    0.15579   0.25374   0.88199   1.000
    H2322   H    0.17998   0.24241   0.84203   1.000
    H2323   H    0.16567   0.32917   0.83819   1.000
    H2324   H    0.18961   0.31797   0.79849   1.000
    H2325   H    0.27242   0.34107   0.77561   1.000
    H2326   H    0.25665   0.32549   0.75951   1.000
    H2327   H    0.31059   0.25730   0.90802   1.000
    H2328   H    0.30483   0.21452   0.93376   1.000
    H2329   H    0.36814   0.22928   0.84363   1.000
    H2330   H    0.36260   0.18711   0.86898   1.000
    C2331   C    0.46092   0.42240   0.54723   1.000
    C2332   C    0.39955   0.36102   0.51247   1.000
    C2333   C    0.41455   0.37603   0.50403   1.000
    C2334   C    0.40521   0.31679   0.42746   1.000
    C2335   C    0.38220   0.31227   0.47489   1.000
    C2336   C    0.40641   0.31089   0.45167   1.000
    C2337   C    0.43068   0.30458   0.45304   1.000
    C2338   C    0.20837   0.18594   0.64843   1.000
    C2339   C    0.25305   0.15936   0.62501   1.000
    C2340   C    0.22795   0.18218   0.62494   1.000
    C2341   C    0.22390   0.20145   0.60143   1.000
    C2342   C    0.26799   0.16297   0.70516   1.000
    C2343   C    0.29961   0.14404   0.66831   1.000
    C2344   C    0.29240   0.15870   0.68530   1.000
    C2345   C    0.26152   0.17681   0.72083   1.000
    C2346   C    0.27199   0.20310   0.73261   1.000
    C2347   C    0.27927   0.18675   0.71726   1.000
    C2348   C    0.31016   0.16851   0.68190   1.000
    C2349   C    0.30374   0.18222   0.69757   1.000
    C2350   C    0.32264   0.28425   0.62099   1.000
    C2351   C    0.31363   0.27520   0.64841   1.000
    C2352   C    0.24194   0.32224   0.53632   1.000
    C2353   C    0.27304   0.34166   0.52830   1.000
    C2354   C    0.24672   0.33972   0.53987   1.000
    C2355   C    0.21750   0.31889   0.54938   1.000
    C2356   C    0.33257   0.07796   0.66808   1.000
    C2357   C    0.19747   0.33299   0.56615   1.000
    C2358   C    0.22638   0.35438   0.55592   1.000
    C2359   C    0.20213   0.35111   0.56881   1.000
    O2360   O    0.46103   0.42559   0.50214   1.000
    O2361   O    0.36883   0.33327   0.52525   1.000
    O2362   O    0.44352   0.40801   0.48477   1.000
    O2363   O    0.38370   0.30637   0.49673   1.000
    O2364   O    0.31969   0.36082   0.47176   1.000
    O2365   O    0.25626   0.14341   0.64681   1.000
    O2366   O    0.28098   0.09285   0.64670   1.000
    O2367   O    0.28390   0.13396   0.67277   1.000
    O2368   O    0.32149   0.14205   0.65000   1.000
    O2369   O    0.24927   0.20797   0.74940   1.000
    O2370   O    0.28867   0.21218   0.72771   1.000
    O2371   O    0.33926   0.30379   0.56556   1.000
    O2372   O    0.29346   0.25801   0.70249   1.000
    O2373   O    0.29016   0.33112   0.51111   1.000
    O2374   O    0.35332   0.27746   0.53657   1.000
    O2375   O    0.30855   0.08410   0.67227   1.000
    O2376   O    0.33907   0.15737   0.59943   1.000
    H2377   H    0.47622   0.40729   0.53902   1.000
    H2378   H    0.40917   0.34037   0.51532   1.000
    H2379   H    0.43529   0.36649   0.50073   1.000
    H2380   H    0.38695   0.32174   0.42554   1.000
    H2381   H    0.43236   0.29999   0.47131   1.000
    H2382   H    0.21061   0.17176   0.66698   1.000
    H2383   H    0.23842   0.19950   0.58290   1.000
    H2384   H    0.25374   0.15579   0.70849   1.000
    H2385   H    0.24241   0.17998   0.73557   1.000
    H2386   H    0.32917   0.16567   0.66698   1.000
    H2387   H    0.31797   0.18961   0.69394   1.000
    H2388   H    0.34107   0.27242   0.61090   1.000
    H2389   H    0.32549   0.25665   0.65835   1.000
    H2390   H    0.25730   0.31059   0.52408   1.000
    H2391   H    0.21452   0.30483   0.54690   1.000
    H2392   H    0.22928   0.36814   0.55895   1.000
    H2393   H    0.18711   0.36260   0.58131   1.000
    C2394   C    0.54723   0.56944   0.46092   1.000
    C2395   C    0.51247   0.72696   0.39955   1.000
    C2396   C    0.50403   0.70539   0.41455   1.000
    C2397   C    0.42746   0.85054   0.40521   1.000
    C2398   C    0.47489   0.83063   0.38220   1.000
    C2399   C    0.45167   0.83104   0.40641   1.000
    C2400   C    0.45304   0.81170   0.43068   1.000
    C2401   C    0.64843   0.95726   0.20837   1.000
    C2402   C    0.62501   0.96258   0.25305   1.000
    C2403   C    0.62494   0.96494   0.22795   1.000
    C2404   C    0.60143   0.97322   0.22390   1.000
    C2405   C    0.70516   0.86389   0.26799   1.000
    C2406   C    0.66831   0.88804   0.29961   1.000
    C2407   C    0.68530   0.86360   0.29240   1.000
    C2408   C    0.72083   0.84085   0.26152   1.000
    C2409   C    0.73261   0.79230   0.27199   1.000
    C2410   C    0.71726   0.81672   0.27927   1.000
    C2411   C    0.68190   0.83943   0.31016   1.000
    C2412   C    0.69757   0.81647   0.30374   1.000
    C2413   C    0.62099   0.77212   0.32264   1.000
    C2414   C    0.64841   0.76276   0.31363   1.000
    C2415   C    0.53632   0.89950   0.24194   1.000
    C2416   C    0.52830   0.85700   0.27304   1.000
    C2417   C    0.53987   0.87369   0.24672   1.000
    C2418   C    0.54938   0.91423   0.21750   1.000
    C2419   C    0.66808   0.92138   0.33257   1.000
    C2420   C    0.56615   0.90339   0.19747   1.000
    C2421   C    0.55592   0.86331   0.22638   1.000
    C2422   C    0.56881   0.87794   0.20213   1.000
    O2423   O    0.50214   0.61124   0.46103   1.000
    O2424   O    0.52525   0.77265   0.36883   1.000
    O2425   O    0.48477   0.66370   0.44352   1.000
    O2426   O    0.49673   0.81320   0.38370   1.000
    O2427   O    0.47176   0.84773   0.31969   1.000
    O2428   O    0.64681   0.95352   0.25626   1.000
    O2429   O    0.64670   0.97946   0.28098   1.000
    O2430   O    0.67277   0.90937   0.28390   1.000
    O2431   O    0.65000   0.88647   0.32149   1.000
    O2432   O    0.74940   0.79336   0.24927   1.000
    O2433   O    0.72771   0.77143   0.28867   1.000
    O2434   O    0.56556   0.79140   0.33926   1.000
    O2435   O    0.70249   0.74604   0.29346   1.000
    O2436   O    0.51111   0.86762   0.29016   1.000
    O2437   O    0.53657   0.83264   0.35332   1.000
    O2438   O    0.67227   0.93508   0.30855   1.000
    O2439   O    0.59943   0.90414   0.33907   1.000
    H2440   H    0.53902   0.57747   0.47622   1.000
    H2441   H    0.51532   0.73515   0.40917   1.000
    H2442   H    0.50073   0.69749   0.43529   1.000
    H2443   H    0.42554   0.86577   0.38695   1.000
    H2444   H    0.47131   0.79634   0.43236   1.000
    H2445   H    0.66698   0.95064   0.21061   1.000
    H2446   H    0.58290   0.97918   0.23842   1.000
    H2447   H    0.70849   0.88199   0.25374   1.000
    H2448   H    0.73557   0.84203   0.24241   1.000
    H2449   H    0.66698   0.83819   0.32917   1.000
    H2450   H    0.69394   0.79849   0.31797   1.000
    H2451   H    0.61090   0.77561   0.34107   1.000
    H2452   H    0.65835   0.75951   0.32549   1.000
    H2453   H    0.52408   0.90802   0.25730   1.000
    H2454   H    0.54690   0.93376   0.21452   1.000
    H2455   H    0.55895   0.84363   0.22928   1.000
    H2456   H    0.58131   0.86898   0.18711   1.000
    C2457   C    0.56944   0.54723   0.42240   1.000
    C2458   C    0.72696   0.51247   0.36102   1.000
    C2459   C    0.70539   0.50403   0.37603   1.000
    C2460   C    0.85054   0.42746   0.31679   1.000
    C2461   C    0.83063   0.47489   0.31227   1.000
    C2462   C    0.83104   0.45167   0.31089   1.000
    C2463   C    0.81170   0.45304   0.30458   1.000
    C2464   C    0.95726   0.64843   0.18594   1.000
    C2465   C    0.96258   0.62501   0.15936   1.000
    C2466   C    0.96494   0.62494   0.18218   1.000
    C2467   C    0.97322   0.60143   0.20145   1.000
    C2468   C    0.86389   0.70516   0.16297   1.000
    C2469   C    0.88804   0.66831   0.14404   1.000
    C2470   C    0.86360   0.68530   0.15870   1.000
    C2471   C    0.84085   0.72083   0.17681   1.000
    C2472   C    0.79230   0.73261   0.20310   1.000
    C2473   C    0.81672   0.71726   0.18675   1.000
    C2474   C    0.83943   0.68190   0.16851   1.000
    C2475   C    0.81647   0.69757   0.18222   1.000
    C2476   C    0.77212   0.62099   0.28425   1.000
    C2477   C    0.76276   0.64841   0.27520   1.000
    C2478   C    0.89950   0.53632   0.32224   1.000
    C2479   C    0.85700   0.52830   0.34166   1.000
    C2480   C    0.87369   0.53987   0.33972   1.000
    C2481   C    0.91423   0.54938   0.31889   1.000
    C2482   C    0.92138   0.66808   0.07796   1.000
    C2483   C    0.90339   0.56615   0.33299   1.000
    C2484   C    0.86331   0.55592   0.35438   1.000
    C2485   C    0.87794   0.56881   0.35111   1.000
    O2486   O    0.61124   0.50214   0.42559   1.000
    O2487   O    0.77265   0.52525   0.33327   1.000
    O2488   O    0.66370   0.48477   0.40801   1.000
    O2489   O    0.81320   0.49673   0.30637   1.000
    O2490   O    0.84773   0.47176   0.36082   1.000
    O2491   O    0.95352   0.64681   0.14341   1.000
    O2492   O    0.97946   0.64670   0.09285   1.000
    O2493   O    0.90937   0.67277   0.13396   1.000
    O2494   O    0.88647   0.65000   0.14205   1.000
    O2495   O    0.79336   0.74940   0.20797   1.000
    O2496   O    0.77143   0.72771   0.21218   1.000
    O2497   O    0.79140   0.56556   0.30379   1.000
    O2498   O    0.74604   0.70249   0.25801   1.000
    O2499   O    0.86762   0.51111   0.33112   1.000
    O2500   O    0.83264   0.53657   0.27746   1.000
    O2501   O    0.93508   0.67227   0.08410   1.000
    O2502   O    0.90414   0.59943   0.15737   1.000
    H2503   H    0.57747   0.53902   0.40729   1.000
    H2504   H    0.73515   0.51532   0.34037   1.000
    H2505   H    0.69749   0.50073   0.36649   1.000
    H2506   H    0.86577   0.42554   0.32174   1.000
    H2507   H    0.79634   0.47131   0.29999   1.000
    H2508   H    0.95064   0.66698   0.17176   1.000
    H2509   H    0.97918   0.58290   0.19950   1.000
    H2510   H    0.88199   0.70849   0.15579   1.000
    H2511   H    0.84203   0.73557   0.17998   1.000
    H2512   H    0.83819   0.66698   0.16567   1.000
    H2513   H    0.79849   0.69394   0.18961   1.000
    H2514   H    0.77561   0.61090   0.27242   1.000
    H2515   H    0.75951   0.65835   0.25665   1.000
    H2516   H    0.90802   0.52408   0.31059   1.000
    H2517   H    0.93376   0.54690   0.30483   1.000
    H2518   H    0.84363   0.55895   0.36814   1.000
    H2519   H    0.86898   0.58131   0.36260   1.000
    C2520   C    0.54723   0.42240   0.56944   1.000
    C2521   C    0.51247   0.36102   0.72696   1.000
    C2522   C    0.50403   0.37603   0.70539   1.000
    C2523   C    0.42746   0.31679   0.85054   1.000
    C2524   C    0.47489   0.31227   0.83063   1.000
    C2525   C    0.45167   0.31089   0.83104   1.000
    C2526   C    0.45304   0.30458   0.81170   1.000
    C2527   C    0.64843   0.18594   0.95726   1.000
    C2528   C    0.62501   0.15936   0.96258   1.000
    C2529   C    0.62494   0.18218   0.96494   1.000
    C2530   C    0.60143   0.20145   0.97322   1.000
    C2531   C    0.70516   0.16297   0.86389   1.000
    C2532   C    0.66831   0.14404   0.88804   1.000
    C2533   C    0.68530   0.15870   0.86360   1.000
    C2534   C    0.72083   0.17681   0.84085   1.000
    C2535   C    0.73261   0.20310   0.79230   1.000
    C2536   C    0.71726   0.18675   0.81672   1.000
    C2537   C    0.68190   0.16851   0.83943   1.000
    C2538   C    0.69757   0.18222   0.81647   1.000
    C2539   C    0.62099   0.28425   0.77212   1.000
    C2540   C    0.64841   0.27520   0.76276   1.000
    C2541   C    0.53632   0.32224   0.89950   1.000
    C2542   C    0.52830   0.34166   0.85700   1.000
    C2543   C    0.53987   0.33972   0.87369   1.000
    C2544   C    0.54938   0.31889   0.91423   1.000
    C2545   C    0.66808   0.07796   0.92138   1.000
    C2546   C    0.56615   0.33299   0.90339   1.000
    C2547   C    0.55592   0.35438   0.86331   1.000
    C2548   C    0.56881   0.35111   0.87794   1.000
    O2549   O    0.50214   0.42559   0.61124   1.000
    O2550   O    0.52525   0.33327   0.77265   1.000
    O2551   O    0.48477   0.40801   0.66370   1.000
    O2552   O    0.49673   0.30637   0.81320   1.000
    O2553   O    0.47176   0.36082   0.84773   1.000
    O2554   O    0.64681   0.14341   0.95352   1.000
    O2555   O    0.64670   0.09285   0.97946   1.000
    O2556   O    0.67277   0.13396   0.90937   1.000
    O2557   O    0.65000   0.14205   0.88647   1.000
    O2558   O    0.74940   0.20797   0.79336   1.000
    O2559   O    0.72771   0.21218   0.77143   1.000
    O2560   O    0.56556   0.30379   0.79140   1.000
    O2561   O    0.70249   0.25801   0.74604   1.000
    O2562   O    0.51111   0.33112   0.86762   1.000
    O2563   O    0.53657   0.27746   0.83264   1.000
    O2564   O    0.67227   0.08410   0.93508   1.000
    O2565   O    0.59943   0.15737   0.90414   1.000
    H2566   H    0.53902   0.40729   0.57747   1.000
    H2567   H    0.51532   0.34037   0.73515   1.000
    H2568   H    0.50073   0.36649   0.69749   1.000
    H2569   H    0.42554   0.32174   0.86577   1.000
    H2570   H    0.47131   0.29999   0.79634   1.000
    H2571   H    0.66698   0.17176   0.95064   1.000
    H2572   H    0.58290   0.19950   0.97918   1.000
    H2573   H    0.70849   0.15579   0.88199   1.000
    H2574   H    0.73557   0.17998   0.84203   1.000
    H2575   H    0.66698   0.16567   0.83819   1.000
    H2576   H    0.69394   0.18961   0.79849   1.000
    H2577   H    0.61090   0.27242   0.77561   1.000
    H2578   H    0.65835   0.25665   0.75951   1.000
    H2579   H    0.52408   0.31059   0.90802   1.000
    H2580   H    0.54690   0.30483   0.93376   1.000
    H2581   H    0.55895   0.36814   0.84363   1.000
    H2582   H    0.58131   0.36260   0.86898   1.000
    C2583   C    0.56944   0.46092   0.54723   1.000
    C2584   C    0.72696   0.39955   0.51247   1.000
    C2585   C    0.70539   0.41455   0.50403   1.000
    C2586   C    0.85054   0.40521   0.42746   1.000
    C2587   C    0.83063   0.38220   0.47489   1.000
    C2588   C    0.83104   0.40641   0.45167   1.000
    C2589   C    0.81170   0.43068   0.45304   1.000
    C2590   C    0.95726   0.20837   0.64843   1.000
    C2591   C    0.96258   0.25305   0.62501   1.000
    C2592   C    0.96494   0.22795   0.62494   1.000
    C2593   C    0.97322   0.22390   0.60143   1.000
    C2594   C    0.86389   0.26799   0.70516   1.000
    C2595   C    0.88804   0.29961   0.66831   1.000
    C2596   C    0.86360   0.29240   0.68530   1.000
    C2597   C    0.84085   0.26152   0.72083   1.000
    C2598   C    0.79230   0.27199   0.73261   1.000
    C2599   C    0.81672   0.27927   0.71726   1.000
    C2600   C    0.83943   0.31016   0.68190   1.000
    C2601   C    0.81647   0.30374   0.69757   1.000
    C2602   C    0.77212   0.32264   0.62099   1.000
    C2603   C    0.76276   0.31363   0.64841   1.000
    C2604   C    0.89950   0.24194   0.53632   1.000
    C2605   C    0.85700   0.27304   0.52830   1.000
    C2606   C    0.87369   0.24672   0.53987   1.000
    C2607   C    0.91423   0.21750   0.54938   1.000
    C2608   C    0.92138   0.33257   0.66808   1.000
    C2609   C    0.90339   0.19747   0.56615   1.000
    C2610   C    0.86331   0.22638   0.55592   1.000
    C2611   C    0.87794   0.20213   0.56881   1.000
    O2612   O    0.61124   0.46103   0.50214   1.000
    O2613   O    0.77265   0.36883   0.52525   1.000
    O2614   O    0.66370   0.44352   0.48477   1.000
    O2615   O    0.81320   0.38370   0.49673   1.000
    O2616   O    0.84773   0.31969   0.47176   1.000
    O2617   O    0.95352   0.25626   0.64681   1.000
    O2618   O    0.97946   0.28098   0.64670   1.000
    O2619   O    0.90937   0.28390   0.67277   1.000
    O2620   O    0.88647   0.32149   0.65000   1.000
    O2621   O    0.79336   0.24927   0.74940   1.000
    O2622   O    0.77143   0.28867   0.72771   1.000
    O2623   O    0.79140   0.33926   0.56556   1.000
    O2624   O    0.74604   0.29346   0.70249   1.000
    O2625   O    0.86762   0.29016   0.51111   1.000
    O2626   O    0.83264   0.35332   0.53657   1.000
    O2627   O    0.93508   0.30855   0.67227   1.000
    O2628   O    0.90414   0.33907   0.59943   1.000
    H2629   H    0.57747   0.47622   0.53902   1.000
    H2630   H    0.73515   0.40917   0.51532   1.000
    H2631   H    0.69749   0.43529   0.50073   1.000
    H2632   H    0.86577   0.38695   0.42554   1.000
    H2633   H    0.79634   0.43236   0.47131   1.000
    H2634   H    0.95064   0.21061   0.66698   1.000
    H2635   H    0.97918   0.23842   0.58290   1.000
    H2636   H    0.88199   0.25374   0.70849   1.000
    H2637   H    0.84203   0.24241   0.73557   1.000
    H2638   H    0.83819   0.32917   0.66698   1.000
    H2639   H    0.79849   0.31797   0.69394   1.000
    H2640   H    0.77561   0.34107   0.61090   1.000
    H2641   H    0.75951   0.32549   0.65835   1.000
    H2642   H    0.90802   0.25730   0.52408   1.000
    H2643   H    0.93376   0.21452   0.54690   1.000
    H2644   H    0.84363   0.22928   0.55895   1.000
    H2645   H    0.86898   0.18711   0.58131   1.000
    C2646   C    0.42240   0.54723   0.46092   1.000
    C2647   C    0.36102   0.51247   0.39955   1.000
    C2648   C    0.37603   0.50403   0.41455   1.000
    C2649   C    0.31679   0.42746   0.40521   1.000
    C2650   C    0.31227   0.47489   0.38220   1.000
    C2651   C    0.31089   0.45167   0.40641   1.000
    C2652   C    0.30458   0.45304   0.43068   1.000
    C2653   C    0.18594   0.64843   0.20837   1.000
    C2654   C    0.15936   0.62501   0.25305   1.000
    C2655   C    0.18218   0.62494   0.22795   1.000
    C2656   C    0.20145   0.60143   0.22390   1.000
    C2657   C    0.16297   0.70516   0.26799   1.000
    C2658   C    0.14404   0.66831   0.29961   1.000
    C2659   C    0.15870   0.68530   0.29240   1.000
    C2660   C    0.17681   0.72083   0.26152   1.000
    C2661   C    0.20310   0.73261   0.27199   1.000
    C2662   C    0.18675   0.71726   0.27927   1.000
    C2663   C    0.16851   0.68190   0.31016   1.000
    C2664   C    0.18222   0.69757   0.30374   1.000
    C2665   C    0.28425   0.62099   0.32264   1.000
    C2666   C    0.27520   0.64841   0.31363   1.000
    C2667   C    0.32224   0.53632   0.24194   1.000
    C2668   C    0.34166   0.52830   0.27304   1.000
    C2669   C    0.33972   0.53987   0.24672   1.000
    C2670   C    0.31889   0.54938   0.21750   1.000
    C2671   C    0.07796   0.66808   0.33257   1.000
    C2672   C    0.33299   0.56615   0.19747   1.000
    C2673   C    0.35438   0.55592   0.22638   1.000
    C2674   C    0.35111   0.56881   0.20213   1.000
    O2675   O    0.42559   0.50214   0.46103   1.000
    O2676   O    0.33327   0.52525   0.36883   1.000
    O2677   O    0.40801   0.48477   0.44352   1.000
    O2678   O    0.30637   0.49673   0.38370   1.000
    O2679   O    0.36082   0.47176   0.31969   1.000
    O2680   O    0.14341   0.64681   0.25626   1.000
    O2681   O    0.09285   0.64670   0.28098   1.000
    O2682   O    0.13396   0.67277   0.28390   1.000
    O2683   O    0.14205   0.65000   0.32149   1.000
    O2684   O    0.20797   0.74940   0.24927   1.000
    O2685   O    0.21218   0.72771   0.28867   1.000
    O2686   O    0.30379   0.56556   0.33926   1.000
    O2687   O    0.25801   0.70249   0.29346   1.000
    O2688   O    0.33112   0.51111   0.29016   1.000
    O2689   O    0.27746   0.53657   0.35332   1.000
    O2690   O    0.08410   0.67227   0.30855   1.000
    O2691   O    0.15737   0.59943   0.33907   1.000
    H2692   H    0.40729   0.53902   0.47622   1.000
    H2693   H    0.34037   0.51532   0.40917   1.000
    H2694   H    0.36649   0.50073   0.43529   1.000
    H2695   H    0.32174   0.42554   0.38695   1.000
    H2696   H    0.29999   0.47131   0.43236   1.000
    H2697   H    0.17176   0.66698   0.21061   1.000
    H2698   H    0.19950   0.58290   0.23842   1.000
    H2699   H    0.15579   0.70849   0.25374   1.000
    H2700   H    0.17998   0.73557   0.24241   1.000
    H2701   H    0.16567   0.66698   0.32917   1.000
    H2702   H    0.18961   0.69394   0.31797   1.000
    H2703   H    0.27242   0.61090   0.34107   1.000
    H2704   H    0.25665   0.65835   0.32549   1.000
    H2705   H    0.31059   0.52408   0.25730   1.000
    H2706   H    0.30483   0.54690   0.21452   1.000
    H2707   H    0.36814   0.55895   0.22928   1.000
    H2708   H    0.36260   0.58131   0.18711   1.000
    C2709   C    0.46092   0.56944   0.42240   1.000
    C2710   C    0.39955   0.72696   0.36102   1.000
    C2711   C    0.41455   0.70539   0.37603   1.000
    C2712   C    0.40521   0.85054   0.31679   1.000
    C2713   C    0.38220   0.83063   0.31227   1.000
    C2714   C    0.40641   0.83104   0.31089   1.000
    C2715   C    0.43068   0.81170   0.30458   1.000
    C2716   C    0.20837   0.95726   0.18594   1.000
    C2717   C    0.25305   0.96258   0.15936   1.000
    C2718   C    0.22795   0.96494   0.18218   1.000
    C2719   C    0.22390   0.97322   0.20145   1.000
    C2720   C    0.26799   0.86389   0.16297   1.000
    C2721   C    0.29961   0.88804   0.14404   1.000
    C2722   C    0.29240   0.86360   0.15870   1.000
    C2723   C    0.26152   0.84085   0.17681   1.000
    C2724   C    0.27199   0.79230   0.20310   1.000
    C2725   C    0.27927   0.81672   0.18675   1.000
    C2726   C    0.31016   0.83943   0.16851   1.000
    C2727   C    0.30374   0.81647   0.18222   1.000
    C2728   C    0.32264   0.77212   0.28425   1.000
    C2729   C    0.31363   0.76276   0.27520   1.000
    C2730   C    0.24194   0.89950   0.32224   1.000
    C2731   C    0.27304   0.85700   0.34166   1.000
    C2732   C    0.24672   0.87369   0.33972   1.000
    C2733   C    0.21750   0.91423   0.31889   1.000
    C2734   C    0.33257   0.92138   0.07796   1.000
    C2735   C    0.19747   0.90339   0.33299   1.000
    C2736   C    0.22638   0.86331   0.35438   1.000
    C2737   C    0.20213   0.87794   0.35111   1.000
    O2738   O    0.46103   0.61124   0.42559   1.000
    O2739   O    0.36883   0.77265   0.33327   1.000
    O2740   O    0.44352   0.66370   0.40801   1.000
    O2741   O    0.38370   0.81320   0.30637   1.000
    O2742   O    0.31969   0.84773   0.36082   1.000
    O2743   O    0.25626   0.95352   0.14341   1.000
    O2744   O    0.28098   0.97946   0.09285   1.000
    O2745   O    0.28390   0.90937   0.13396   1.000
    O2746   O    0.32149   0.88647   0.14205   1.000
    O2747   O    0.24927   0.79336   0.20797   1.000
    O2748   O    0.28867   0.77143   0.21218   1.000
    O2749   O    0.33926   0.79140   0.30379   1.000
    O2750   O    0.29346   0.74604   0.25801   1.000
    O2751   O    0.29016   0.86762   0.33112   1.000
    O2752   O    0.35332   0.83264   0.27746   1.000
    O2753   O    0.30855   0.93508   0.08410   1.000
    O2754   O    0.33907   0.90414   0.15737   1.000
    H2755   H    0.47622   0.57747   0.40729   1.000
    H2756   H    0.40917   0.73515   0.34037   1.000
    H2757   H    0.43529   0.69749   0.36649   1.000
    H2758   H    0.38695   0.86577   0.32174   1.000
    H2759   H    0.43236   0.79634   0.29999   1.000
    H2760   H    0.21061   0.95064   0.17176   1.000
    H2761   H    0.23842   0.97918   0.19950   1.000
    H2762   H    0.25374   0.88199   0.15579   1.000
    H2763   H    0.24241   0.84203   0.17998   1.000
    H2764   H    0.32917   0.83819   0.16567   1.000
    H2765   H    0.31797   0.79849   0.18961   1.000
    H2766   H    0.34107   0.77561   0.27242   1.000
    H2767   H    0.32549   0.75951   0.25665   1.000
    H2768   H    0.25730   0.90802   0.31059   1.000
    H2769   H    0.21452   0.93376   0.30483   1.000
    H2770   H    0.22928   0.84363   0.36814   1.000
    H2771   H    0.18711   0.86898   0.36260   1.000
    C2772   C    0.46092   0.54723   0.56944   1.000
    C2773   C    0.39955   0.51247   0.72696   1.000
    C2774   C    0.41455   0.50403   0.70539   1.000
    C2775   C    0.40521   0.42746   0.85054   1.000
    C2776   C    0.38220   0.47489   0.83063   1.000
    C2777   C    0.40641   0.45167   0.83104   1.000
    C2778   C    0.43068   0.45304   0.81170   1.000
    C2779   C    0.20837   0.64843   0.95726   1.000
    C2780   C    0.25305   0.62501   0.96258   1.000
    C2781   C    0.22795   0.62494   0.96494   1.000
    C2782   C    0.22390   0.60143   0.97322   1.000
    C2783   C    0.26799   0.70516   0.86389   1.000
    C2784   C    0.29961   0.66831   0.88804   1.000
    C2785   C    0.29240   0.68530   0.86360   1.000
    C2786   C    0.26152   0.72083   0.84085   1.000
    C2787   C    0.27199   0.73261   0.79230   1.000
    C2788   C    0.27927   0.71726   0.81672   1.000
    C2789   C    0.31016   0.68190   0.83943   1.000
    C2790   C    0.30374   0.69757   0.81647   1.000
    C2791   C    0.32264   0.62099   0.77212   1.000
    C2792   C    0.31363   0.64841   0.76276   1.000
    C2793   C    0.24194   0.53632   0.89950   1.000
    C2794   C    0.27304   0.52830   0.85700   1.000
    C2795   C    0.24672   0.53987   0.87369   1.000
    C2796   C    0.21750   0.54938   0.91423   1.000
    C2797   C    0.33257   0.66808   0.92138   1.000
    C2798   C    0.19747   0.56615   0.90339   1.000
    C2799   C    0.22638   0.55592   0.86331   1.000
    C2800   C    0.20213   0.56881   0.87794   1.000
    O2801   O    0.46103   0.50214   0.61124   1.000
    O2802   O    0.36883   0.52525   0.77265   1.000
    O2803   O    0.44352   0.48477   0.66370   1.000
    O2804   O    0.38370   0.49673   0.81320   1.000
    O2805   O    0.31969   0.47176   0.84773   1.000
    O2806   O    0.25626   0.64681   0.95352   1.000
    O2807   O    0.28098   0.64670   0.97946   1.000
    O2808   O    0.28390   0.67277   0.90937   1.000
    O2809   O    0.32149   0.65000   0.88647   1.000
    O2810   O    0.24927   0.74940   0.79336   1.000
    O2811   O    0.28867   0.72771   0.77143   1.000
    O2812   O    0.33926   0.56556   0.79140   1.000
    O2813   O    0.29346   0.70249   0.74604   1.000
    O2814   O    0.29016   0.51111   0.86762   1.000
    O2815   O    0.35332   0.53657   0.83264   1.000
    O2816   O    0.30855   0.67227   0.93508   1.000
    O2817   O    0.33907   0.59943   0.90414   1.000
    H2818   H    0.47622   0.53902   0.57747   1.000
    H2819   H    0.40917   0.51532   0.73515   1.000
    H2820   H    0.43529   0.50073   0.69749   1.000
    H2821   H    0.38695   0.42554   0.86577   1.000
    H2822   H    0.43236   0.47131   0.79634   1.000
    H2823   H    0.21061   0.66698   0.95064   1.000
    H2824   H    0.23842   0.58290   0.97918   1.000
    H2825   H    0.25374   0.70849   0.88199   1.000
    H2826   H    0.24241   0.73557   0.84203   1.000
    H2827   H    0.32917   0.66698   0.83819   1.000
    H2828   H    0.31797   0.69394   0.79849   1.000
    H2829   H    0.34107   0.61090   0.77561   1.000
    H2830   H    0.32549   0.65835   0.75951   1.000
    H2831   H    0.25730   0.52408   0.90802   1.000
    H2832   H    0.21452   0.54690   0.93376   1.000
    H2833   H    0.22928   0.55895   0.84363   1.000
    H2834   H    0.18711   0.58131   0.86898   1.000
    C2835   C    0.42240   0.56944   0.54723   1.000
    C2836   C    0.36102   0.72696   0.51247   1.000
    C2837   C    0.37603   0.70539   0.50403   1.000
    C2838   C    0.31679   0.85054   0.42746   1.000
    C2839   C    0.31227   0.83063   0.47489   1.000
    C2840   C    0.31089   0.83104   0.45167   1.000
    C2841   C    0.30458   0.81170   0.45304   1.000
    C2842   C    0.18594   0.95726   0.64843   1.000
    C2843   C    0.15936   0.96258   0.62501   1.000
    C2844   C    0.18218   0.96494   0.62494   1.000
    C2845   C    0.20145   0.97322   0.60143   1.000
    C2846   C    0.16297   0.86389   0.70516   1.000
    C2847   C    0.14404   0.88804   0.66831   1.000
    C2848   C    0.15870   0.86360   0.68530   1.000
    C2849   C    0.17681   0.84085   0.72083   1.000
    C2850   C    0.20310   0.79230   0.73261   1.000
    C2851   C    0.18675   0.81672   0.71726   1.000
    C2852   C    0.16851   0.83943   0.68190   1.000
    C2853   C    0.18222   0.81647   0.69757   1.000
    C2854   C    0.28425   0.77212   0.62099   1.000
    C2855   C    0.27520   0.76276   0.64841   1.000
    C2856   C    0.32224   0.89950   0.53632   1.000
    C2857   C    0.34166   0.85700   0.52830   1.000
    C2858   C    0.33972   0.87369   0.53987   1.000
    C2859   C    0.31889   0.91423   0.54938   1.000
    C2860   C    0.07796   0.92138   0.66808   1.000
    C2861   C    0.33299   0.90339   0.56615   1.000
    C2862   C    0.35438   0.86331   0.55592   1.000
    C2863   C    0.35111   0.87794   0.56881   1.000
    O2864   O    0.42559   0.61124   0.50214   1.000
    O2865   O    0.33327   0.77265   0.52525   1.000
    O2866   O    0.40801   0.66370   0.48477   1.000
    O2867   O    0.30637   0.81320   0.49673   1.000
    O2868   O    0.36082   0.84773   0.47176   1.000
    O2869   O    0.14341   0.95352   0.64681   1.000
    O2870   O    0.09285   0.97946   0.64670   1.000
    O2871   O    0.13396   0.90937   0.67277   1.000
    O2872   O    0.14205   0.88647   0.65000   1.000
    O2873   O    0.20797   0.79336   0.74940   1.000
    O2874   O    0.21218   0.77143   0.72771   1.000
    O2875   O    0.30379   0.79140   0.56556   1.000
    O2876   O    0.25801   0.74604   0.70249   1.000
    O2877   O    0.33112   0.86762   0.51111   1.000
    O2878   O    0.27746   0.83264   0.53657   1.000
    O2879   O    0.08410   0.93508   0.67227   1.000
    O2880   O    0.15737   0.90414   0.59943   1.000
    H2881   H    0.40729   0.57747   0.53902   1.000
    H2882   H    0.34037   0.73515   0.51532   1.000
    H2883   H    0.36649   0.69749   0.50073   1.000
    H2884   H    0.32174   0.86577   0.42554   1.000
    H2885   H    0.29999   0.79634   0.47131   1.000
    H2886   H    0.17176   0.95064   0.66698   1.000
    H2887   H    0.19950   0.97918   0.58290   1.000
    H2888   H    0.15579   0.88199   0.70849   1.000
    H2889   H    0.17998   0.84203   0.73557   1.000
    H2890   H    0.16567   0.83819   0.66698   1.000
    H2891   H    0.18961   0.79849   0.69394   1.000
    H2892   H    0.27242   0.77561   0.61090   1.000
    H2893   H    0.25665   0.75951   0.65835   1.000
    H2894   H    0.31059   0.90802   0.52408   1.000
    H2895   H    0.30483   0.93376   0.54690   1.000
    H2896   H    0.36814   0.84363   0.55895   1.000
    H2897   H    0.36260   0.86898   0.58131   1.000
    C2898   C    0.56944   0.42240   0.46092   1.000
    C2899   C    0.72696   0.36102   0.39955   1.000
    C2900   C    0.70539   0.37603   0.41455   1.000
    C2901   C    0.85054   0.31679   0.40521   1.000
    C2902   C    0.83063   0.31227   0.38220   1.000
    C2903   C    0.83104   0.31089   0.40641   1.000
    C2904   C    0.81170   0.30458   0.43068   1.000
    C2905   C    0.95726   0.18594   0.20837   1.000
    C2906   C    0.96258   0.15936   0.25305   1.000
    C2907   C    0.96494   0.18218   0.22795   1.000
    C2908   C    0.97322   0.20145   0.22390   1.000
    C2909   C    0.86389   0.16297   0.26799   1.000
    C2910   C    0.88804   0.14404   0.29961   1.000
    C2911   C    0.86360   0.15870   0.29240   1.000
    C2912   C    0.84085   0.17681   0.26152   1.000
    C2913   C    0.79230   0.20310   0.27199   1.000
    C2914   C    0.81672   0.18675   0.27927   1.000
    C2915   C    0.83943   0.16851   0.31016   1.000
    C2916   C    0.81647   0.18222   0.30374   1.000
    C2917   C    0.77212   0.28425   0.32264   1.000
    C2918   C    0.76276   0.27520   0.31363   1.000
    C2919   C    0.89950   0.32224   0.24194   1.000
    C2920   C    0.85700   0.34166   0.27304   1.000
    C2921   C    0.87369   0.33972   0.24672   1.000
    C2922   C    0.91423   0.31889   0.21750   1.000
    C2923   C    0.92138   0.07796   0.33257   1.000
    C2924   C    0.90339   0.33299   0.19747   1.000
    C2925   C    0.86331   0.35438   0.22638   1.000
    C2926   C    0.87794   0.35111   0.20213   1.000
    O2927   O    0.61124   0.42559   0.46103   1.000
    O2928   O    0.77265   0.33327   0.36883   1.000
    O2929   O    0.66370   0.40801   0.44352   1.000
    O2930   O    0.81320   0.30637   0.38370   1.000
    O2931   O    0.84773   0.36082   0.31969   1.000
    O2932   O    0.95352   0.14341   0.25626   1.000
    O2933   O    0.97946   0.09285   0.28098   1.000
    O2934   O    0.90937   0.13396   0.28390   1.000
    O2935   O    0.88647   0.14205   0.32149   1.000
    O2936   O    0.79336   0.20797   0.24927   1.000
    O2937   O    0.77143   0.21218   0.28867   1.000
    O2938   O    0.79140   0.30379   0.33926   1.000
    O2939   O    0.74604   0.25801   0.29346   1.000
    O2940   O    0.86762   0.33112   0.29016   1.000
    O2941   O    0.83264   0.27746   0.35332   1.000
    O2942   O    0.93508   0.08410   0.30855   1.000
    O2943   O    0.90414   0.15737   0.33907   1.000
    H2944   H    0.57747   0.40729   0.47622   1.000
    H2945   H    0.73515   0.34037   0.40917   1.000
    H2946   H    0.69749   0.36649   0.43529   1.000
    H2947   H    0.86577   0.32174   0.38695   1.000
    H2948   H    0.79634   0.29999   0.43236   1.000
    H2949   H    0.95064   0.17176   0.21061   1.000
    H2950   H    0.97918   0.19950   0.23842   1.000
    H2951   H    0.88199   0.15579   0.25374   1.000
    H2952   H    0.84203   0.17998   0.24241   1.000
    H2953   H    0.83819   0.16567   0.32917   1.000
    H2954   H    0.79849   0.18961   0.31797   1.000
    H2955   H    0.77561   0.27242   0.34107   1.000
    H2956   H    0.75951   0.25665   0.32549   1.000
    H2957   H    0.90802   0.31059   0.25730   1.000
    H2958   H    0.93376   0.30483   0.21452   1.000
    H2959   H    0.84363   0.36814   0.22928   1.000
    H2960   H    0.86898   0.36260   0.18711   1.000
    C2961   C    0.54723   0.46092   0.42240   1.000
    C2962   C    0.51247   0.39955   0.36102   1.000
    C2963   C    0.50403   0.41455   0.37603   1.000
    C2964   C    0.42746   0.40521   0.31679   1.000
    C2965   C    0.47489   0.38220   0.31227   1.000
    C2966   C    0.45167   0.40641   0.31089   1.000
    C2967   C    0.45304   0.43068   0.30458   1.000
    C2968   C    0.64843   0.20837   0.18594   1.000
    C2969   C    0.62501   0.25305   0.15936   1.000
    C2970   C    0.62494   0.22795   0.18218   1.000
    C2971   C    0.60143   0.22390   0.20145   1.000
    C2972   C    0.70516   0.26799   0.16297   1.000
    C2973   C    0.66831   0.29961   0.14404   1.000
    C2974   C    0.68530   0.29240   0.15870   1.000
    C2975   C    0.72083   0.26152   0.17681   1.000
    C2976   C    0.73261   0.27199   0.20310   1.000
    C2977   C    0.71726   0.27927   0.18675   1.000
    C2978   C    0.68190   0.31016   0.16851   1.000
    C2979   C    0.69757   0.30374   0.18222   1.000
    C2980   C    0.62099   0.32264   0.28425   1.000
    C2981   C    0.64841   0.31363   0.27520   1.000
    C2982   C    0.53632   0.24194   0.32224   1.000
    C2983   C    0.52830   0.27304   0.34166   1.000
    C2984   C    0.53987   0.24672   0.33972   1.000
    C2985   C    0.54938   0.21750   0.31889   1.000
    C2986   C    0.66808   0.33257   0.07796   1.000
    C2987   C    0.56615   0.19747   0.33299   1.000
    C2988   C    0.55592   0.22638   0.35438   1.000
    C2989   C    0.56881   0.20213   0.35111   1.000
    O2990   O    0.50214   0.46103   0.42559   1.000
    O2991   O    0.52525   0.36883   0.33327   1.000
    O2992   O    0.48477   0.44352   0.40801   1.000
    O2993   O    0.49673   0.38370   0.30637   1.000
    O2994   O    0.47176   0.31969   0.36082   1.000
    O2995   O    0.64681   0.25626   0.14341   1.000
    O2996   O    0.64670   0.28098   0.09285   1.000
    O2997   O    0.67277   0.28390   0.13396   1.000
    O2998   O    0.65000   0.32149   0.14205   1.000
    O2999   O    0.74940   0.24927   0.20797   1.000
    O3000   O    0.72771   0.28867   0.21218   1.000
    O3001   O    0.56556   0.33926   0.30379   1.000
    O3002   O    0.70249   0.29346   0.25801   1.000
    O3003   O    0.51111   0.29016   0.33112   1.000
    O3004   O    0.53657   0.35332   0.27746   1.000
    O3005   O    0.67227   0.30855   0.08410   1.000
    O3006   O    0.59943   0.33907   0.15737   1.000
    H3007   H    0.53902   0.47622   0.40729   1.000
    H3008   H    0.51532   0.40917   0.34037   1.000
    H3009   H    0.50073   0.43529   0.36649   1.000
    H3010   H    0.42554   0.38695   0.32174   1.000
    H3011   H    0.47131   0.43236   0.29999   1.000
    H3012   H    0.66698   0.21061   0.17176   1.000
    H3013   H    0.58290   0.23842   0.19950   1.000
    H3014   H    0.70849   0.25374   0.15579   1.000
    H3015   H    0.73557   0.24241   0.17998   1.000
    H3016   H    0.66698   0.32917   0.16567   1.000
    H3017   H    0.69394   0.31797   0.18961   1.000
    H3018   H    0.61090   0.34107   0.27242   1.000
    H3019   H    0.65835   0.32549   0.25665   1.000
    H3020   H    0.52408   0.25730   0.31059   1.000
    H3021   H    0.54690   0.21452   0.30483   1.000
    H3022   H    0.55895   0.22928   0.36814   1.000
    H3023   H    0.58131   0.18711   0.36260   1.000
    C3024   C    0.35723   0.35723   0.52298   1.000
    C3025   C    0.37266   0.37266   0.51646   1.000
    C3026   C    0.41918   0.41918   0.48908   1.000
    C3027   C    0.40303   0.40303   0.49938   1.000
    C3028   C    0.31762   0.31762   0.57750   1.000
    C3029   C    0.30807   0.30807   0.60680   1.000
    C3030   C    0.28000   0.28000   0.69049   1.000
    C3031   C    0.28965   0.28965   0.66272   1.000
    C3032   C    0.35723   0.35723   0.76256   1.000
    C3033   C    0.37266   0.37266   0.73822   1.000
    C3034   C    0.41918   0.41918   0.67257   1.000
    C3035   C    0.40303   0.40303   0.69455   1.000
    C3036   C    0.31762   0.31762   0.78725   1.000
    C3037   C    0.30807   0.30807   0.77705   1.000
    C3038   C    0.28000   0.28000   0.74951   1.000
    C3039   C    0.28965   0.28965   0.75798   1.000
    C3040   C    0.52298   0.76256   0.35723   1.000
    C3041   C    0.51646   0.73822   0.37266   1.000
    C3042   C    0.48908   0.67257   0.41918   1.000
    C3043   C    0.49938   0.69455   0.40303   1.000
    C3044   C    0.57750   0.78725   0.31762   1.000
    C3045   C    0.60680   0.77705   0.30807   1.000
    C3046   C    0.69049   0.74951   0.28000   1.000
    C3047   C    0.66272   0.75798   0.28965   1.000
    C3048   C    0.76256   0.52298   0.35723   1.000
    C3049   C    0.73822   0.51646   0.37266   1.000
    C3050   C    0.67257   0.48908   0.41918   1.000
    C3051   C    0.69455   0.49938   0.40303   1.000
    C3052   C    0.78725   0.57750   0.31762   1.000
    C3053   C    0.77705   0.60680   0.30807   1.000
    C3054   C    0.74951   0.69049   0.28000   1.000
    C3055   C    0.75798   0.66272   0.28965   1.000
    C3056   C    0.52298   0.35723   0.35723   1.000
    C3057   C    0.51646   0.37266   0.37266   1.000
    C3058   C    0.48908   0.41918   0.41918   1.000
    C3059   C    0.49938   0.40303   0.40303   1.000
    C3060   C    0.57750   0.31762   0.31762   1.000
    C3061   C    0.60680   0.30807   0.30807   1.000
    C3062   C    0.69049   0.28000   0.28000   1.000
    C3063   C    0.66272   0.28965   0.28965   1.000
    C3064   C    0.76256   0.35723   0.35723   1.000
    C3065   C    0.73822   0.37266   0.37266   1.000
    C3066   C    0.67257   0.41918   0.41918   1.000
    C3067   C    0.69455   0.40303   0.40303   1.000
    C3068   C    0.78725   0.31762   0.31762   1.000
    C3069   C    0.77705   0.30807   0.30807   1.000
    C3070   C    0.74951   0.28000   0.28000   1.000
    C3071   C    0.75798   0.28965   0.28965   1.000
    C3072   C    0.35723   0.52298   0.76256   1.000
    C3073   C    0.37266   0.51646   0.73822   1.000
    C3074   C    0.41918   0.48908   0.67257   1.000
    C3075   C    0.40303   0.49938   0.69455   1.000
    C3076   C    0.31762   0.57750   0.78725   1.000
    C3077   C    0.30807   0.60680   0.77705   1.000
    C3078   C    0.28000   0.69049   0.74951   1.000
    C3079   C    0.28965   0.66272   0.75798   1.000
    C3080   C    0.35723   0.76256   0.52298   1.000
    C3081   C    0.37266   0.73822   0.51646   1.000
    C3082   C    0.41918   0.67257   0.48908   1.000
    C3083   C    0.40303   0.69455   0.49938   1.000
    C3084   C    0.31762   0.78725   0.57750   1.000
    C3085   C    0.30807   0.77705   0.60680   1.000
    C3086   C    0.28000   0.74951   0.69049   1.000
    C3087   C    0.28965   0.75798   0.66272   1.000
    C3088   C    0.35723   0.52298   0.35723   1.000
    C3089   C    0.37266   0.51646   0.37266   1.000
    C3090   C    0.41918   0.48908   0.41918   1.000
    C3091   C    0.40303   0.49938   0.40303   1.000
    C3092   C    0.31762   0.57750   0.31762   1.000
    C3093   C    0.30807   0.60680   0.30807   1.000
    C3094   C    0.28000   0.69049   0.28000   1.000
    C3095   C    0.28965   0.66272   0.28965   1.000
    C3096   C    0.35723   0.76256   0.35723   1.000
    C3097   C    0.37266   0.73822   0.37266   1.000
    C3098   C    0.41918   0.67257   0.41918   1.000
    C3099   C    0.40303   0.69455   0.40303   1.000
    C3100   C    0.31762   0.78725   0.31762   1.000
    C3101   C    0.30807   0.77705   0.30807   1.000
    C3102   C    0.28000   0.74951   0.28000   1.000
    C3103   C    0.28965   0.75798   0.28965   1.000
    C3104   C    0.76256   0.35723   0.52298   1.000
    C3105   C    0.73822   0.37266   0.51646   1.000
    C3106   C    0.67257   0.41918   0.48908   1.000
    C3107   C    0.69455   0.40303   0.49938   1.000
    C3108   C    0.78725   0.31762   0.57750   1.000
    C3109   C    0.77705   0.30807   0.60680   1.000
    C3110   C    0.74951   0.28000   0.69049   1.000
    C3111   C    0.75798   0.28965   0.66272   1.000
    C3112   C    0.52298   0.35723   0.76256   1.000
    C3113   C    0.51646   0.37266   0.73822   1.000
    C3114   C    0.48908   0.41918   0.67257   1.000
    C3115   C    0.49938   0.40303   0.69455   1.000
    C3116   C    0.57750   0.31762   0.78725   1.000
    C3117   C    0.60680   0.30807   0.77705   1.000
    C3118   C    0.69049   0.28000   0.74951   1.000
    C3119   C    0.66272   0.28965   0.75798   1.000
    C3120   C    0.89277   0.89277   0.48744   1.000
    C3121   C    0.87734   0.87734   0.51178   1.000
    C3122   C    0.83082   0.83082   0.57743   1.000
    C3123   C    0.84697   0.84697   0.55545   1.000
    C3124   C    0.93238   0.93238   0.46275   1.000
    C3125   C    0.94193   0.94193   0.47295   1.000
    C3126   C    0.97000   0.97000   0.50049   1.000
    C3127   C    0.96035   0.96035   0.49202   1.000
    C3128   C    0.89277   0.89277   0.72702   1.000
    C3129   C    0.87734   0.87734   0.73354   1.000
    C3130   C    0.83082   0.83082   0.76092   1.000
    C3131   C    0.84697   0.84697   0.75062   1.000
    C3132   C    0.93238   0.93238   0.67250   1.000
    C3133   C    0.94193   0.94193   0.64320   1.000
    C3134   C    0.97000   0.97000   0.55951   1.000
    C3135   C    0.96035   0.96035   0.58728   1.000
    C3136   C    0.72702   0.48744   0.89277   1.000
    C3137   C    0.73354   0.51178   0.87734   1.000
    C3138   C    0.76092   0.57743   0.83082   1.000
    C3139   C    0.75062   0.55545   0.84697   1.000
    C3140   C    0.67250   0.46275   0.93238   1.000
    C3141   C    0.64320   0.47295   0.94193   1.000
    C3142   C    0.55951   0.50049   0.97000   1.000
    C3143   C    0.58728   0.49202   0.96035   1.000
    C3144   C    0.48744   0.72702   0.89277   1.000
    C3145   C    0.51178   0.73354   0.87734   1.000
    C3146   C    0.57743   0.76092   0.83082   1.000
    C3147   C    0.55545   0.75062   0.84697   1.000
    C3148   C    0.46275   0.67250   0.93238   1.000
    C3149   C    0.47295   0.64320   0.94193   1.000
    C3150   C    0.50049   0.55951   0.97000   1.000
    C3151   C    0.49202   0.58728   0.96035   1.000
    C3152   C    0.72702   0.89277   0.48744   1.000
    C3153   C    0.73354   0.87734   0.51178   1.000
    C3154   C    0.76092   0.83082   0.57743   1.000
    C3155   C    0.75062   0.84697   0.55545   1.000
    C3156   C    0.67250   0.93238   0.46275   1.000
    C3157   C    0.64320   0.94193   0.47295   1.000
    C3158   C    0.55951   0.97000   0.50049   1.000
    C3159   C    0.58728   0.96035   0.49202   1.000
    C3160   C    0.48744   0.89277   0.72702   1.000
    C3161   C    0.51178   0.87734   0.73354   1.000
    C3162   C    0.57743   0.83082   0.76092   1.000
    C3163   C    0.55545   0.84697   0.75062   1.000
    C3164   C    0.46275   0.93238   0.67250   1.000
    C3165   C    0.47295   0.94193   0.64320   1.000
    C3166   C    0.50049   0.97000   0.55951   1.000
    C3167   C    0.49202   0.96035   0.58728   1.000
    C3168   C    0.89277   0.72702   0.89277   1.000
    C3169   C    0.87734   0.73354   0.87734   1.000
    C3170   C    0.83082   0.76092   0.83082   1.000
    C3171   C    0.84697   0.75062   0.84697   1.000
    C3172   C    0.93238   0.67250   0.93238   1.000
    C3173   C    0.94193   0.64320   0.94193   1.000
    C3174   C    0.97000   0.55951   0.97000   1.000
    C3175   C    0.96035   0.58728   0.96035   1.000
    C3176   C    0.89277   0.48744   0.89277   1.000
    C3177   C    0.87734   0.51178   0.87734   1.000
    C3178   C    0.83082   0.57743   0.83082   1.000
    C3179   C    0.84697   0.55545   0.84697   1.000
    C3180   C    0.93238   0.46275   0.93238   1.000
    C3181   C    0.94193   0.47295   0.94193   1.000
    C3182   C    0.97000   0.50049   0.97000   1.000
    C3183   C    0.96035   0.49202   0.96035   1.000
    C3184   C    0.89277   0.72702   0.48744   1.000
    C3185   C    0.87734   0.73354   0.51178   1.000
    C3186   C    0.83082   0.76092   0.57743   1.000
    C3187   C    0.84697   0.75062   0.55545   1.000
    C3188   C    0.93238   0.67250   0.46275   1.000
    C3189   C    0.94193   0.64320   0.47295   1.000
    C3190   C    0.97000   0.55951   0.50049   1.000
    C3191   C    0.96035   0.58728   0.49202   1.000
    C3192   C    0.89277   0.48744   0.72702   1.000
    C3193   C    0.87734   0.51178   0.73354   1.000
    C3194   C    0.83082   0.57743   0.76092   1.000
    C3195   C    0.84697   0.55545   0.75062   1.000
    C3196   C    0.93238   0.46275   0.67250   1.000
    C3197   C    0.94193   0.47295   0.64320   1.000
    C3198   C    0.97000   0.50049   0.55951   1.000
    C3199   C    0.96035   0.49202   0.58728   1.000
    C3200   C    0.48744   0.89277   0.89277   1.000
    C3201   C    0.51178   0.87734   0.87734   1.000
    C3202   C    0.57743   0.83082   0.83082   1.000
    C3203   C    0.55545   0.84697   0.84697   1.000
    C3204   C    0.46275   0.93238   0.93238   1.000
    C3205   C    0.47295   0.94193   0.94193   1.000
    C3206   C    0.50049   0.97000   0.97000   1.000
    C3207   C    0.49202   0.96035   0.96035   1.000
    C3208   C    0.72702   0.89277   0.89277   1.000
    C3209   C    0.73354   0.87734   0.87734   1.000
    C3210   C    0.76092   0.83082   0.83082   1.000
    C3211   C    0.75062   0.84697   0.84697   1.000
    C3212   C    0.67250   0.93238   0.93238   1.000
    C3213   C    0.64320   0.94193   0.94193   1.000
    C3214   C    0.55951   0.97000   0.97000   1.000
    C3215   C    0.58728   0.96035   0.96035   1.000
    C3216   C    0.44280   0.44280   0.51229   1.000
    C3217   C    0.44188   0.44188   0.53555   1.000
    C3218   C    0.44280   0.44280   0.60211   1.000
    C3219   C    0.44188   0.44188   0.58069   1.000
    C3220   C    0.51229   0.60211   0.44280   1.000
    C3221   C    0.53555   0.58069   0.44188   1.000
    C3222   C    0.60211   0.51229   0.44280   1.000
    C3223   C    0.58069   0.53555   0.44188   1.000
    C3224   C    0.51229   0.44280   0.44280   1.000
    C3225   C    0.53555   0.44188   0.44188   1.000
    C3226   C    0.60211   0.44280   0.44280   1.000
    C3227   C    0.58069   0.44188   0.44188   1.000
    C3228   C    0.44280   0.51229   0.60211   1.000
    C3229   C    0.44188   0.53555   0.58069   1.000
    C3230   C    0.44280   0.60211   0.51229   1.000
    C3231   C    0.44188   0.58069   0.53555   1.000
    C3232   C    0.44280   0.51229   0.44280   1.000
    C3233   C    0.44188   0.53555   0.44188   1.000
    C3234   C    0.44280   0.60211   0.44280   1.000
    C3235   C    0.44188   0.58069   0.44188   1.000
    C3236   C    0.60211   0.44280   0.51229   1.000
    C3237   C    0.58069   0.44188   0.53555   1.000
    C3238   C    0.51229   0.44280   0.60211   1.000
    C3239   C    0.53555   0.44188   0.58069   1.000
    C3240   C    0.80720   0.80720   0.64789   1.000
    C3241   C    0.80812   0.80812   0.66931   1.000
    C3242   C    0.80720   0.80720   0.73771   1.000
    C3243   C    0.80812   0.80812   0.71445   1.000
    C3244   C    0.73771   0.64789   0.80720   1.000
    C3245   C    0.71445   0.66931   0.80812   1.000
    C3246   C    0.64789   0.73771   0.80720   1.000
    C3247   C    0.66931   0.71445   0.80812   1.000
    C3248   C    0.73771   0.80720   0.64789   1.000
    C3249   C    0.71445   0.80812   0.66931   1.000
    C3250   C    0.64789   0.80720   0.73771   1.000
    C3251   C    0.66931   0.80812   0.71445   1.000
    C3252   C    0.80720   0.73771   0.80720   1.000
    C3253   C    0.80812   0.71445   0.80812   1.000
    C3254   C    0.80720   0.64789   0.80720   1.000
    C3255   C    0.80812   0.66931   0.80812   1.000
    C3256   C    0.80720   0.73771   0.64789   1.000
    C3257   C    0.80812   0.71445   0.66931   1.000
    C3258   C    0.80720   0.64789   0.73771   1.000
    C3259   C    0.80812   0.66931   0.71445   1.000
    C3260   C    0.64789   0.80720   0.80720   1.000
    C3261   C    0.66931   0.80812   0.80812   1.000
    C3262   C    0.73771   0.80720   0.80720   1.000
    C3263   C    0.71445   0.80812   0.80812   1.000
loop_
    _geom_bond_atom_site_label_1
    _geom_bond_atom_site_label_2
    _geom_bond_distance
    _geom_bond_site_symmetry_2
    _ccdc_geom_bond_type
    O1771  C1748     1.27469  1_554   S
    O2117  C2094     1.27469  1_554   S
    O1480  C1457     1.27469  1_554   S
    O1834  C1811     1.27469  1_554   S
    O960   C937      1.27469  1_554   S
    O1228  C1205     1.27469  1_554   S
    C1819  C1817     1.41016      .   S
    C1819  C1823     1.40076      .   S
    C1819  C1818     1.47969  1_554   S
    C1756  C1754     1.41016      .   S
    C1756  C1760     1.40111      .   S
    C1756  C1755     1.47969  1_554   S
    C945   C943      1.41016      .   S
    C945   C949      1.40111      .   S
    C945   C944      1.47969  1_554   S
    C1213  C1211     1.41016      .   S
    C1213  C1217     1.40076      .   S
    C1213  C1212     1.47969  1_554   S
    C2102  C2100     1.41016      .   S
    C2102  C2106     1.40113      .   S
    C2102  C2101     1.47969  1_554   S
    C1465  C1463     1.41016      .   S
    C1465  C1469     1.40113      .   S
    C1465  C1464     1.47969  1_554   S
    H2133  C2093     1.08341  1_554   S
    H1496  C1456     1.08341  1_554   S
    H1850  C1810     1.08292  1_554   S
    H976   C936      1.08299  1_554   S
    H1244  C1204     1.08292  1_554   S
    H1787  C1747     1.08299  1_554   S
    C943   C946      1.40238      .   S
    C943   H981      1.08281  1_554   S
    C2100  C2103     1.40238      .   S
    C2100  H2138     1.08279  1_554   S
    C1754  C1757     1.40238      .   S
    C1754  H1792     1.08281  1_554   S
    C1211  C1214     1.40238      .   S
    C1211  H1249     1.08317  1_554   S
    C1817  C1820     1.40238      .   S
    C1817  H1855     1.08317  1_554   S
    C1463  C1466     1.40238      .   S
    C1463  H1501     1.08279  1_554   S
    H2131  C2089     1.08252      .   S
    H1494  C1452     1.08252      .   S
    H974   C932      1.08252      .   S
    H1848  C1806     1.08252      .   S
    H1785  C1743     1.08252      .   S
    H1242  C1200     1.08252      .   S
    H1503  C1469     1.08312      .   S
    H1857  C1823     1.08353      .   S
    H1251  C1217     1.08353      .   S
    H1794  C1760     1.08292      .   S
    H983   C949      1.08292      .   S
    H2140  C2106     1.08312      .   S
    C1805  C1806     1.41158      .   S
    C1805  C1803     1.41084      .   S
    C1805  C1804     1.51096  1_554   S
    C1451  C1452     1.41113      .   S
    C1451  C1449     1.41127      .   S
    C1451  C1450     1.51099  1_554   S
    C1199  C1200     1.41158      .   S
    C1199  C1197     1.41084      .   S
    C1199  C1198     1.51096  1_554   S
    C2088  C2089     1.41113      .   S
    C2088  C2086     1.41127      .   S
    C2088  C2087     1.51099  1_554   S
    C931   C932      1.41173      .   S
    C931   C929      1.41100      .   S
    C931   C930      1.51070  1_554   S
    C1742  C1743     1.41173      .   S
    C1742  C1740     1.41100      .   S
    C1742  C1741     1.51070  1_554   S
    C2106  C2107     1.39027      .   S
    C1469  C1470     1.39027      .   S
    C949   C950      1.39027      .   S
    C1823  C1824     1.39027      .   S
    C1217  C1218     1.39027      .   S
    C1760  C1761     1.39027      .   S
    C1452  C1869     1.41076      .   S
    C1806  C1515     1.41076      .   S
    C932   C1680     1.41076      .   S
    C2089  C1263     1.41076      .   S
    C1743  C995      1.41076      .   S
    C1200  C2026     1.41076      .   S
    C1820  H1856     1.08273      .   S
    C1820  C1822     1.40426      .   S
    C1757  H1793     1.08334      .   S
    C1757  C1759     1.40426      .   S
    C2103  H2139     1.08313      .   S
    C2103  C2105     1.40426      .   S
    C1466  H1502     1.08313      .   S
    C1466  C1468     1.40426      .   S
    C1214  H1250     1.08273      .   S
    C1214  C1216     1.40426      .   S
    C946   H982      1.08334      .   S
    C946   C948      1.40426      .   S
    O1024  C1000     1.27285      .   S
    O2055  C2031     1.27227      .   S
    O1709  C1685     1.27285      .   S
    O1898  C1874     1.27252      .   S
    O1544  C1520     1.27227      .   S
    O1292  C1268     1.27252      .   S
    H1784  C1740     1.08272      .   S
    H973   C929      1.08272      .   S
    H1241  C1197     1.08286      .   S
    H2130  C2086     1.08332      .   S
    H1493  C1449     1.08332      .   S
    H1847  C1803     1.08286      .   S
    C1449  C1866     1.40950      .   S
    C929   C1677     1.40950      .   S
    C1197  C2023     1.40950      .   S
    C2086  C1260     1.40950      .   S
    C1740  C992      1.40950      .   S
    C1803  C1512     1.40950      .   S
    O1708  C1685     1.27469      .   S
    O1543  C1520     1.27469  1_545   S
    O1291  C1268     1.27469  1_455   S
    O1023  C1000     1.27469      .   S
    O2054  C2031     1.27469  1_455   S
    O1897  C1874     1.27469  1_545   S
    C1000  C1001     1.50834      .   S
    C1685  C1686     1.50834      .   S
    C1874  C1875     1.50834      .   S
    C1268  C1269     1.50834      .   S
    C2031  C2032     1.50834      .   S
    C1520  C1521     1.50834      .   S
    C950   C948      1.40878      .   S
    C950   H984      1.08289      .   S
    C1470  C1468     1.40857      .   S
    C1470  H1504     1.08287      .   S
    C1218  C1216     1.40817      .   S
    C1218  H1252     1.08327      .   S
    C1761  C1759     1.40878      .   S
    C1761  H1795     1.08289      .   S
    C1824  C1822     1.40817      .   S
    C1824  H1858     1.08327      .   S
    C2107  C2105     1.40857      .   S
    C2107  H2141     1.08287      .   S
    C1869  H1911     1.08252      .   S
    C1869  C1868     1.41113      .   S
    C1263  H1305     1.08252      .   S
    C1263  C1262     1.41113      .   S
    C995   H521      1.08252      .   S
    C995   C994      1.41140      .   S
    C2026  H2068     1.08252      .   S
    C2026  C2025     1.41158      .   S
    C1680  H1722     1.08252      .   S
    C1680  C1679     1.41140      .   S
    C1515  H1557     1.08252      .   S
    C1515  C1514     1.41158      .   S
    C1468  C2734     1.48126      .   S
    C1759  C557      1.48153      .   S
    C948   C2986     1.48153      .   S
    C2105  C354      1.48126      .   S
    C1822  C158      1.48129      .   S
    C1216  C2482     1.48129      .   S
    H2072  C2034     1.08289      .   S
    H1726  C1688     1.08230      .   S
    H1309  C1271     1.08263      .   S
    H1915  C1877     1.08263      .   S
    H525   C1003     1.08230      .   S
    H1561  C1523     1.08289      .   S
    C1001  C1003     1.41009      .   S
    C1001  C999      1.41161      .   S
    C1875  C1877     1.41009      .   S
    C1875  C1873     1.41131      .   S
    C1269  C1271     1.41009      .   S
    C1269  C1267     1.41131      .   S
    C1521  C1523     1.41009      .   S
    C1521  C1519     1.41102      .   S
    C2032  C2034     1.41009      .   S
    C2032  C2030     1.41102      .   S
    C1686  C1688     1.41009      .   S
    C1686  C1684     1.41161      .   S
    C1677  C1679     1.41067      .   S
    C1677  H1721     1.08302      .   S
    C1866  C1868     1.41127      .   S
    C1866  H1910     1.08332      .   S
    C1512  C1514     1.41084      .   S
    C1512  H1556     1.08286      .   S
    C2023  C2025     1.41084      .   S
    C2023  H2067     1.08286      .   S
    C992   C994      1.41067      .   S
    C992   H520      1.08302      .   S
    C1260  C1262     1.41127      .   S
    C1260  H1304     1.08332      .   S
    C1271  C1270     1.40647      .   S
    C1003  C1002     1.40647      .   S
    C1877  C1876     1.40647      .   S
    C1688  C1687     1.40647      .   S
    C2034  C2033     1.40647      .   S
    C1523  C1522     1.40647      .   S
    C2025  C2024     1.51096  1_455   S
    C1679  C1678     1.51132      .   S
    C1262  C1261     1.51099  1_455   S
    C1514  C1513     1.51096  1_545   S
    C994   C993      1.51132      .   S
    C1868  C1867     1.51099  1_545   S
    H2070  C2030     1.08292  1_455   S
    H523   C999      1.08218      .   S
    H1307  C1267     1.08341  1_455   S
    H1559  C1519     1.08292  1_545   S
    H1724  C1684     1.08218      .   S
    H1913  C1873     1.08341  1_545   S
    C999   C996      1.41201      .   S
    C1873  C1870     1.41201      .   S
    C1519  C1516     1.41201      .   S
    C1267  C1264     1.41201      .   S
    C1684  C1681     1.41201      .   S
    C2030  C2027     1.41201      .   S
    C158   O177      1.27271      .   S
    C158   O1550     1.26278      .   S
    C2986  O3005     1.27213      .   S
    C2986  O1715     1.26278      .   S
    C2482  O2501     1.27271      .   S
    C2482  O2061     1.26278      .   S
    C354   O373      1.27227      .   S
    C354   O1298     1.26278      .   S
    C557   O576      1.27213      .   S
    C557   O1030     1.26278      .   S
    C2734  O2753     1.27227      .   S
    C2734  O1904     1.26278      .   S
    C1270  H1308     1.08286      .   S
    C1270  C1266     1.41033      .   S
    C1876  H1914     1.08286      .   S
    C1876  C1872     1.41033      .   S
    C1687  H1725     1.08224      .   S
    C1687  C1683     1.41033      .   S
    C2033  H2071     1.08261      .   S
    C2033  C2029     1.41033      .   S
    C1002  H524      1.08224      .   S
    C1002  C998      1.41033      .   S
    C1522  H1560     1.08261      .   S
    C1522  C1518     1.41033      .   S
    C996   C998      1.41150      .   S
    C996   H522      1.08234      .   S
    C1264  C1266     1.41088      .   S
    C1264  H1306     1.08234      .   S
    C1681  C1683     1.41150      .   S
    C1681  H1723     1.08234      .   S
    C2027  C2029     1.41116      .   S
    C2027  H2069     1.08234      .   S
    C1870  C1872     1.41088      .   S
    C1870  H1912     1.08234      .   S
    C1516  C1518     1.41116      .   S
    C1516  H1558     1.08234      .   S
    C1867  O2744     1.27552      .   S
    C1867  O1893     1.27399      .   S
    C993   O567      1.27492      .   S
    C993   O1019     1.27399      .   S
    C1513  O168      1.27509      .   S
    C1513  O1539     1.27399      .   S
    C1261  O364      1.27552      .   S
    C1261  O1287     1.27399      .   S
    C1678  O2996     1.27492      .   S
    C1678  O1704     1.27399      .   S
    C2024  O2492     1.27509      .   S
    C2024  O2050     1.27399      .   S
    C998   C997      1.50873      .   S
    C1266  C1265     1.50873      .   S
    C1872  C1871     1.50873      .   S
    C1683  C1682     1.50873      .   S
    C1518  C1517     1.50873      .   S
    C2029  C2028     1.50873      .   S
    C1871  O1896     1.27302      .   S
    C1871  O1895     1.27495      .   S
    C1517  O1542     1.27276      .   S
    C1517  O1541     1.27495      .   S
    C1682  O1707     1.27239      .   S
    C1682  O1706     1.27495      .   S
    C1265  O1290     1.27302      .   S
    C1265  O1289     1.27495      .   S
    C997   O1022     1.27239      .   S
    C997   O1021     1.27495      .   S
    C2028  O2053     1.27276      .   S
    C2028  O2052     1.27495      .   S
    O169   C145      1.27495      .   S
    O2997  C2973     1.27495      .   S
    O2745  C2721     1.27495      .   S
    O365   C341      1.27495      .   S
    O568   C544      1.27495      .   S
    O2493  C2469     1.27495      .   S
    O170   C145      1.27239      .   S
    O2998  C2973     1.27276      .   S
    O366   C341      1.27302      .   S
    O569   C544      1.27276      .   S
    O2494  C2469     1.27239      .   S
    O2746  C2721     1.27302      .   S
    O2743  C2717     1.27399      .   S
    O167   C141      1.27399      .   S
    O566   C540      1.27399      .   S
    O2491  C2465     1.27399      .   S
    O363   C337      1.27399      .   S
    O2995  C2969     1.27399      .   S
    C341   C342      1.50873      .   S
    C544   C545      1.50873      .   S
    C145   C146      1.50873      .   S
    C2469  C2470     1.50873      .   S
    C2721  C2722     1.50873      .   S
    C2973  C2974     1.50873      .   S
    H585   C543      1.08234      .   S
    H2510  C2468     1.08234      .   S
    H382   C340      1.08234      .   S
    H186   C144      1.08234      .   S
    H3014  C2972     1.08234      .   S
    H2762  C2720     1.08234      .   S
    O1894  C2717     1.27552      .   S
    O1705  C2969     1.27509      .   S
    O2051  C2465     1.27492      .   S
    O1288  C337      1.27552      .   S
    O1540  C141      1.27492      .   S
    O1020  C540      1.27509      .   S
    O2502  C2041     1.26278      .   S
    O577   C1010     1.26278      .   S
    O2754  C1884     1.26278      .   S
    O374   C1278     1.26278      .   S
    O178   C1530     1.26278      .   S
    O3006  C1695     1.26278      .   S
    C545   C543      1.41116      .   S
    C545   C549      1.41033      .   S
    C2722  C2720     1.41088      .   S
    C2722  C2726     1.41033      .   S
    C2470  C2468     1.41150      .   S
    C2470  C2474     1.41033      .   S
    C342   C340      1.41088      .   S
    C342   C346      1.41033      .   S
    C2974  C2972     1.41116      .   S
    C2974  C2978     1.41033      .   S
    C146   C144      1.41150      .   S
    C146   C150      1.41033      .   S
    C337   C338      1.51099      .   S
    C2969  C2970     1.51096      .   S
    C540   C541      1.51096      .   S
    C2717  C2718     1.51099      .   S
    C2465  C2466     1.51132      .   S
    C141   C142      1.51132      .   S
    C543   C546      1.41201      .   S
    C2468  C2471     1.41201      .   S
    C340   C343      1.41201      .   S
    C144   C147      1.41201      .   S
    C2972  C2975     1.41201      .   S
    C2720  C2723     1.41201      .   S
    H188   C150      1.08224      .   S
    H587   C549      1.08261      .   S
    H2764  C2726     1.08286      .   S
    H2512  C2474     1.08224      .   S
    H384   C346      1.08286      .   S
    H3016  C2978     1.08261      .   S
    O2060  C2041     1.27213      .   S
    O1297  C1278     1.27227      .   S
    O1549  C1530     1.27213      .   S
    O1714  C1695     1.27271      .   S
    O1029  C1010     1.27271      .   S
    O1903  C1884     1.27227      .   S
    C2978  C2979     1.40647      .   S
    C150   C151      1.40647      .   S
    C549   C550      1.40647      .   S
    C2474  C2475     1.40647      .   S
    C2726  C2727     1.40647      .   S
    C346   C347      1.40647      .   S
    H184   C140      1.08302      .   S
    H2508  C2464     1.08302      .   S
    H583   C539      1.08286      .   S
    H380   C336      1.08332      .   S
    H2760  C2716     1.08332      .   S
    H3012  C2968     1.08286      .   S
    C1884  C621      1.48126      .   S
    C1278  C2924     1.48126      .   S
    C1530  C2420     1.48153      .   S
    C2041  C225      1.48153      .   S
    C1695  C292      1.48129      .   S
    C1010  C2672     1.48129      .   S
    C546   H586      1.08292      .   S
    C546   C548      1.41102      .   S
    C2975  H3015     1.08292      .   S
    C2975  C2977     1.41102      .   S
    C147   H187      1.08218      .   S
    C147   C149      1.41161      .   S
    C2723  H2763     1.08341      .   S
    C2723  C2725     1.41131      .   S
    C2471  H2511     1.08218      .   S
    C2471  C2473     1.41161      .   S
    C343   H383      1.08341      .   S
    C343   C345      1.41131      .   S
    C2466  C2464     1.41067      .   S
    C2466  C2467     1.41140      .   S
    C142   C140      1.41067      .   S
    C142   C143      1.41140      .   S
    C2718  C2716     1.41127      .   S
    C2718  C2719     1.41113      .   S
    C541   C539      1.41084      .   S
    C541   C542      1.41158      .   S
    C338   C336      1.41127      .   S
    C338   C339      1.41113      .   S
    C2970  C2968     1.41084      .   S
    C2970  C2971     1.41158      .   S
    C2727  C2725     1.41009      .   S
    C2727  H2765     1.08263      .   S
    C2979  C2977     1.41009      .   S
    C2979  H3017     1.08289      .   S
    C2475  C2473     1.41009      .   S
    C2475  H2513     1.08230      .   S
    C347   C345      1.41009      .   S
    C347   H385      1.08263      .   S
    C550   C548      1.41009      .   S
    C550   H588      1.08289      .   S
    C151   C149      1.41009      .   S
    C151   H189      1.08230      .   S
    C539   C2653     1.40950      .   S
    C2716  C602      1.40950      .   S
    C140   C2401     1.40950      .   S
    C2464  C206      1.40950      .   S
    C336   C2905     1.40950      .   S
    C2968  C273      1.40950      .   S
    C2977  C2976     1.50834      .   S
    C2473  C2472     1.50834      .   S
    C2725  C2724     1.50834      .   S
    C345   C344      1.50834      .   S
    C548   C547      1.50834      .   S
    C149   C148      1.50834      .   S
    H2456  C2422     1.08289      .   S
    H130   C227      1.08289      .   S
    H657   C623      1.08287      .   S
    H328   C294      1.08327      .   S
    H2708  C2674     1.08327      .   S
    H2960  C2926     1.08287      .   S
    C2672  C2674     1.40817      .   S
    C2672  C2670     1.40426      .   S
    C2924  C2926     1.40857      .   S
    C2924  C2922     1.40426      .   S
    C292   C294      1.40817      .   S
    C292   C290      1.40426      .   S
    C225   C227      1.40878      .   S
    C225   C223      1.40426      .   S
    C621   C623      1.40857      .   S
    C621   C619      1.40426      .   S
    C2420  C2422     1.40878      .   S
    C2420  C2418     1.40426      .   S
    H381   C339      1.08252      .   S
    H185   C143      1.08252      .   S
    H2509  C2467     1.08252      .   S
    H584   C542      1.08252      .   S
    H2761  C2719     1.08252      .   S
    H3013  C2971     1.08252      .   S
    C143   C2404     1.41076      .   S
    C339   C2908     1.41076      .   S
    C2971  C276      1.41076      .   S
    C2467  C209      1.41076      .   S
    C542   C2656     1.41076      .   S
    C2719  C605      1.41076      .   S
    C2926  C2925     1.39027      .   S
    C623   C622      1.39027      .   S
    C2674  C2673     1.39027      .   S
    C2422  C2421     1.39027      .   S
    C227   C226      1.39027      .   S
    C294   C293      1.39027      .   S
    C344   O367      1.27469      .   S
    C344   O368      1.27252      .   S
    C148   O171      1.27469      .   S
    C148   O172      1.27285      .   S
    C2976  O2999     1.27469      .   S
    C2976  O3000     1.27227      .   S
    C547   O570      1.27469      .   S
    C547   O571      1.27227      .   S
    C2724  O2747     1.27469      .   S
    C2724  O2748     1.27252      .   S
    C2472  O2495     1.27469      .   S
    C2472  O2496     1.27285      .   S
    C2401  H2445     1.08272      .   S
    C2401  C2403     1.41100      .   S
    C206   H250      1.08272      .   S
    C206   C208      1.41100      .   S
    C273   H317      1.08286      .   S
    C273   C275      1.41084      .   S
    C2905  H2949     1.08332      .   S
    C2905  C2907     1.41127      .   S
    C602   H646      1.08332      .   S
    C602   C604      1.41127      .   S
    C2653  H2697     1.08286      .   S
    C2653  C2655     1.41084      .   S
    H2706  C2670     1.08273      .   S
    H326   C290      1.08273      .   S
    H128   C223      1.08334      .   S
    H2454  C2418     1.08334      .   S
    H655   C619      1.08313      .   S
    H2958  C2922     1.08313      .   S
    C619   C616      1.40238      .   S
    C223   C220      1.40238      .   S
    C2418  C2415     1.40238      .   S
    C2922  C2919     1.40238      .   S
    C2670  C2667     1.40238      .   S
    C290   C287      1.40238      .   S
    C2908  C2907     1.41113      .   S
    C2908  H2950     1.08252      .   S
    C605   C604      1.41113      .   S
    C605   H647      1.08252      .   S
    C2404  C2403     1.41173      .   S
    C2404  H2446     1.08252      .   S
    C276   C275      1.41158      .   S
    C276   H318      1.08252      .   S
    C209   C208      1.41173      .   S
    C209   H251      1.08252      .   S
    C2656  C2655     1.41158      .   S
    C2656  H2698     1.08252      .   S
    C293   H327      1.08353      .   S
    C293   C289      1.40076      .   S
    C2673  H2707     1.08353      .   S
    C2673  C2669     1.40076      .   S
    C2925  H2959     1.08312      .   S
    C2925  C2921     1.40113      .   S
    C622   H656      1.08312      .   S
    C622   C618      1.40113      .   S
    C2421  H2455     1.08292      .   S
    C2421  C2417     1.40111      .   S
    C226   H129      1.08292      .   S
    C226   C222      1.40111      .   S
    C208   C207      1.51070      .   S
    C2403  C2402     1.51070      .   S
    C2907  C2906     1.51099      .   S
    C2655  C2654     1.51096      .   S
    C275   C274      1.51096      .   S
    C604   C603      1.51099      .   S
    C2919  C2921     1.41016      .   S
    C2919  H2957     1.08279      .   S
    C220   C222      1.41016      .   S
    C220   H127      1.08281      .   S
    C287   C289      1.41016      .   S
    C287   H325      1.08317      .   S
    C2415  C2417     1.41016      .   S
    C2415  H2453     1.08281      .   S
    C616   C618      1.41016      .   S
    C616   H654      1.08279      .   S
    C2667  C2669     1.41016      .   S
    C2667  H2705     1.08317      .   S
    H2700  C2660     1.08292      .   S
    H649   C609      1.08341      .   S
    H253   C213      1.08299      .   S
    H2448  C2408     1.08299      .   S
    H2952  C2912     1.08341      .   S
    H320   C280      1.08292      .   S
    C2417  C2416     1.47969      .   S
    C2921  C2920     1.47969      .   S
    C222   C221      1.47969      .   S
    C289   C288      1.47969      .   S
    C618   C617      1.47969      .   S
    C2669  C2668     1.47969      .   S
    O237   C214      1.27469      .   S
    O2432  C2409     1.27469      .   S
    O2936  C2913     1.27469      .   S
    O304   C281      1.27469      .   S
    O633   C610      1.27469      .   S
    O2684  C2661     1.27469      .   S
    C2654  O2680     1.27399      .   S
    C2654  O1957     1.27509      .   S
    C274   O300      1.27399      .   S
    C274   O1099     1.27509      .   S
    C2906  O2932     1.27399      .   S
    C2906  O1642     1.27552      .   S
    C207   O233      1.27399      .   S
    C207   O1351     1.27522      .   S
    C2402  O2428     1.27399      .   S
    C2402  O2240     1.27522      .   S
    C603   O629      1.27399      .   S
    C603   O831      1.27552      .   S
    H2699  C2657     1.08234      .   S
    H319   C277      1.08234      .   S
    H2447  C2405     1.08234      .   S
    H2951  C2909     1.08234      .   S
    H252   C210      1.08234      .   S
    H648   C606      1.08234      .   S
    H3019  C2981     1.08308      .   S
    H387   C349      1.08308      .   S
    H2767  C2729     1.08308      .   S
    H191   C153      1.08308      .   S
    H590   C552      1.08308      .   S
    H2515  C2477     1.08308      .   S
    O2750  C3102     1.27301      .   S
    O174   C3046     1.27301      .   S
    O2498  C3054     1.27301      .   S
    O3002  C3062     1.27301      .   S
    O370   C3070     1.27301      .   S
    O573   C3094     1.27301      .   S
    C2660  C2657     1.41201      .   S
    C2660  C2662     1.41102      .   S
    C2408  C2405     1.41201      .   S
    C2408  C2410     1.41150      .   S
    C2912  C2909     1.41201      .   S
    C2912  C2914     1.41131      .   S
    C609   C606      1.41201      .   S
    C609   C611      1.41131      .   S
    C213   C210      1.41201      .   S
    C213   C215      1.41150      .   S
    C280   C277      1.41201      .   S
    C280   C282      1.41102      .   S
    C2657  C2659     1.41116      .   S
    C2909  C2911     1.41088      .   S
    C2405  C2407     1.41110      .   S
    C277   C279      1.41116      .   S
    C210   C212      1.41110      .   S
    C606   C608      1.41088      .   S
    H1659  C1617     1.08252      .   S
    H2257  C2215     1.08252      .   S
    H1116  C1074     1.08252      .   S
    H1974  C1932     1.08252      .   S
    H1368  C1326     1.08252      .   S
    H848   C794      1.08252      .   S
    C2409  C2410     1.50834      .   S
    C2409  O2433     1.27273      .   S
    C2913  C2914     1.50834      .   S
    C2913  O2937     1.27252      .   S
    C2661  C2662     1.50834      .   S
    C2661  O2685     1.27227      .   S
    C281   C282      1.50834      .   S
    C281   O305      1.27227      .   S
    C610   C611      1.50834      .   S
    C610   O634      1.27252      .   S
    C214   C215      1.50834      .   S
    C214   O238      1.27273      .   S
    H2514  C2476     1.08260      .   S
    H386   C348      1.08260      .   S
    H2766  C2728     1.08260      .   S
    H589   C551      1.08260      .   S
    H190   C152      1.08260      .   S
    H3018  C2980     1.08260      .   S
    C2920  O372      1.27044      .   S
    C2920  O2940     1.26682      .   S
    C288   O3004     1.26993      .   S
    C288   O308      1.26639      .   S
    C617   O2752     1.27044      .   S
    C617   O637      1.26682      .   S
    C221   O2500     1.27049      .   S
    C221   O241      1.26672      .   S
    C2416  O176      1.27049      .   S
    C2416  O2436     1.26672      .   S
    C2668  O575      1.26993      .   S
    C2668  O2688     1.26639      .   S
    C2981  C2980     1.40693      .   S
    C2981  C3063     1.41318      .   S
    C349   C348      1.40693      .   S
    C349   C3071     1.41318      .   S
    C2729  C2728     1.40693      .   S
    C2729  C3103     1.41318      .   S
    C552   C551      1.40693      .   S
    C552   C3095     1.41318      .   S
    C153   C152      1.40693      .   S
    C153   C3047     1.41318      .   S
    C2477  C2476     1.40693      .   S
    C2477  C3055     1.41318      .   S
    C1617  C794      1.41076      .   S
    C1617  C1616     1.41113      .   S
    C794   C793      1.41113      .   S
    C1074  C2215     1.41076      .   S
    C1074  C1073     1.41140      .   S
    C1932  C1326     1.41076      .   S
    C1932  C1931     1.41140      .   S
    C1326  C1325     1.41173      .   S
    C2215  C2214     1.41173      .   S
    C2662  C2664     1.41009      .   S
    C282   C284      1.41009      .   S
    C2914  C2916     1.41009      .   S
    C215   C217      1.41009      .   S
    C611   C613      1.41009      .   S
    C2410  C2412     1.41009      .   S
    C3062  C3063     1.42548      .   S
    C3062  O307      1.27301      .   S
    C3094  C3095     1.42548      .   S
    C3094  O2687     1.27301      .   S
    C3070  C3071     1.42548      .   S
    C3070  O2939     1.27301      .   S
    C3102  C3103     1.42548      .   S
    C3102  O636      1.27301      .   S
    C3046  C3047     1.42548      .   S
    C3046  O2435     1.27301      .   S
    C3054  C3055     1.42548      .   S
    C3054  O240      1.27301      .   S
    O2429  C2213     1.27522      .   S
    O301   C1072     1.27492      .   S
    O630   C792      1.27552      .   S
    O234   C1324     1.27522      .   S
    O2681  C1930     1.27492      .   S
    O2933  C1615     1.27552      .   S
    O302   C278      1.27495      .   S
    O235   C211      1.27495      .   S
    O631   C607      1.27495      .   S
    O2430  C2406     1.27495      .   S
    O2934  C2910     1.27495      .   S
    O2682  C2658     1.27495      .   S
    C2980  C3061     1.40896      .   S
    C2476  C3053     1.40868      .   S
    C152   C3045     1.40868      .   S
    C551   C3093     1.40896      .   S
    C2728  C3101     1.40869      .   S
    C348   C3069     1.40869      .   S
    C2214  C2213     1.51070  1_545   S
    C2214  C2212     1.41100      .   S
    C1931  C1930     1.51132      .   S
    C1931  C1929     1.41067      .   S
    C1616  C1615     1.51099  1_455   S
    C1616  C1614     1.41127      .   S
    C793   C792      1.51099  1_545   S
    C793   C791      1.41127      .   S
    C1073  C1072     1.51132      .   S
    C1073  C1071     1.41067      .   S
    C1325  C1324     1.51070  1_455   S
    C1325  C1323     1.41100      .   S
    C2213  O2239     1.27399      .   S
    C1615  O1641     1.27399      .   S
    C792   O830      1.27399      .   S
    C1072  O1098     1.27399      .   S
    C1930  O1956     1.27399      .   S
    C1324  O1350     1.27399      .   S
    C3063  C286      1.41318      .   S
    C3095  C2666     1.41318      .   S
    C3055  C219      1.41318      .   S
    C3047  C2414     1.41318      .   S
    C3071  C2918     1.41318      .   S
    C3103  C615      1.41318      .   S
    C2659  C2658     1.50873      .   S
    C2659  C2663     1.41033      .   S
    C212   C211      1.50873      .   S
    C212   C216      1.41033      .   S
    C608   C607      1.50873      .   S
    C608   C612      1.41033      .   S
    C2911  C2910     1.50873      .   S
    C2911  C2915     1.41033      .   S
    C2407  C2406     1.50873      .   S
    C2407  C2411     1.41033      .   S
    C279   C278      1.50873      .   S
    C279   C283      1.41033      .   S
    C1929  C1323     1.40950      .   S
    C1929  H1973     1.08302      .   S
    C2212  C1071     1.40950      .   S
    C2212  H2256     1.08272      .   S
    C1323  H1367     1.08272      .   S
    C1071  H1115     1.08302      .   S
    C791   C1614     1.40950      .   S
    C791   H847      1.08332      .   S
    C1614  H1658     1.08332      .   S
    C211   O236      1.27276      .   S
    C2406  O2431     1.27276      .   S
    C607   O632      1.27302      .   S
    C2658  O2683     1.27276      .   S
    C278   O303      1.27276      .   S
    C2910  O2935     1.27302      .   S
    H2507  C2463     1.08261      .   S
    H379   C335      1.08261      .   S
    H582   C538      1.08261      .   S
    H2759  C2715     1.08261      .   S
    H3011  C2967     1.08261      .   S
    H183   C139      1.08261      .   S
    C2664  C2663     1.40647      .   S
    C2664  H2702     1.08289      .   S
    C2916  C2915     1.40647      .   S
    C2916  H2954     1.08263      .   S
    C613   C612      1.40647      .   S
    C613   H651      1.08263      .   S
    C2412  C2411     1.40647      .   S
    C2412  H2450     1.08243      .   S
    C284   C283      1.40647      .   S
    C284   H322      1.08289      .   S
    C217   C216      1.40647      .   S
    C217   H255      1.08243      .   S
    O2497  C3052     1.27123      .   S
    O369   C3068     1.27227      .   S
    O2749  C3100     1.27227      .   S
    O3001  C3060     1.27177      .   S
    O173   C3044     1.27123      .   S
    O572   C3092     1.27177      .   S
    C139   C2715     1.40510      .   S
    C139   C138      1.40882      .   S
    C538   C2967     1.40510      .   S
    C538   C537      1.40821      .   S
    C2463  C335      1.40510      .   S
    C2463  C2462     1.40882      .   S
    C2967  C2966     1.40821      .   S
    C2715  C2714     1.40850      .   S
    C335   C334      1.40850      .   S
    H193   C157      1.08314      .   S
    H2517  C2481     1.08314      .   S
    H3021  C2985     1.08273      .   S
    H2769  C2733     1.08313      .   S
    H592   C556      1.08273      .   S
    H389   C353      1.08313      .   S
    O2489  C2461     1.27072      .   S
    O361   C333      1.27040      .   S
    O2741  C2713     1.27040      .   S
    O165   C137      1.27072      .   S
    O2993  C2965     1.27101      .   S
    O564   C536      1.27101      .   S
    C3069  C3068     1.50353      .   S
    C3069  C2917     1.40869      .   S
    C3093  C3092     1.50353      .   S
    C3093  C2665     1.40896      .   S
    C3061  C3060     1.50353      .   S
    C3061  C285      1.40896      .   S
    C3053  C3052     1.50353      .   S
    C3053  C218      1.40922      .   S
    C3045  C3044     1.50353      .   S
    C3045  C2413     1.40922      .   S
    C3101  C3100     1.50353      .   S
    C3101  C614      1.40869      .   S
    O2690  C2671     1.27213      .   S
    O243   C224      1.27224      .   S
    O2438  C2419     1.27224      .   S
    O639   C620      1.27227      .   S
    O310   C291      1.27213      .   S
    O2942  C2923     1.27227      .   S
    C216   H254      1.08264      .   S
    C612   H650      1.08286      .   S
    C283   H321      1.08261      .   S
    C2411  H2449     1.08264      .   S
    C2915  H2953     1.08286      .   S
    C2663  H2701     1.08261      .   S
    H3020  C2982     1.08317      .   S
    H388   C350      1.08279      .   S
    H2516  C2478     1.08330      .   S
    H2768  C2730     1.08279      .   S
    H591   C553      1.08317      .   S
    H192   C154      1.08330      .   S
    C334   C333      1.49256      .   S
    C334   C332      1.40665      .   S
    C2462  C2461     1.49130      .   S
    C2462  C2460     1.40697      .   S
    C537   C536      1.49193      .   S
    C537   C535      1.40726      .   S
    C2966  C2965     1.49193      .   S
    C2966  C2964     1.40726      .   S
    C138   C137      1.49130      .   S
    C138   C136      1.40697      .   S
    C2714  C2713     1.49256      .   S
    C2714  C2712     1.40665      .   S
    C2461  O232      1.26837      .   S
    C333   O2931     1.26808      .   S
    C2713  O628      1.26808      .   S
    C137   O2427     1.26837      .   S
    C536   O2679     1.26777      .   S
    C2965  O299      1.26777      .   S
    C286   C285      1.40693      .   S
    C286   H324      1.08308      .   S
    C615   C614      1.40693      .   S
    C615   H653      1.08308      .   S
    C2414  C2413     1.40693      .   S
    C2414  H2452     1.08308      .   S
    C219   C218      1.40693      .   S
    C219   H257      1.08308      .   S
    C2666  C2665     1.40693      .   S
    C2666  H2704     1.08308      .   S
    C2918  C2917     1.40693      .   S
    C2918  H2956     1.08308      .   S
    O1360  C1341     1.27224      .   S
    O2249  C2230     1.27224      .   S
    O1966  C1947     1.27271      .   S
    O1651  C1632     1.27227      .   S
    O840   C821      1.27227      .   S
    O1108  C1089     1.27271      .   S
    H1982  C1946     1.08314      .   S
    H1124  C1088     1.08314      .   S
    H856   C820      1.08313      .   S
    H1376  C1340     1.08334      .   S
    H1667  C1631     1.08313      .   S
    H2265  C2229     1.08334      .   S
    C136   C2712     1.39819      .   S
    C136   H182      1.08257      .   S
    C332   C2460     1.39819      .   S
    C332   H378      1.08257      .   S
    C2964  C535      1.39819      .   S
    C2964  H3010     1.08257      .   S
    C2460  H2506     1.08257      .   S
    C535   H581      1.08257      .   S
    C2712  H2758     1.08257      .   S
    C3068  O2938     1.27227      .   S
    C3044  O2434     1.27233      .   S
    C3052  O239      1.27233      .   S
    C3100  O635      1.27227      .   S
    C3092  O2686     1.27177      .   S
    C3060  O306      1.27177      .   S
    C556   C553      1.40238      .   S
    C556   C558      1.40426      .   S
    C353   C350      1.40238      .   S
    C353   C355      1.40426      .   S
    C2733  C2730     1.40238      .   S
    C2733  C2735     1.40426      .   S
    C157   C154      1.40238      .   S
    C157   C159      1.40426      .   S
    C2985  C2982     1.40238      .   S
    C2985  C2987     1.40426      .   S
    C2481  C2478     1.40238      .   S
    C2481  C2483     1.40426      .   S
    C2478  C2480     1.41016      .   S
    C154   C156      1.41016      .   S
    C2730  C2732     1.41016      .   S
    C350   C352      1.41016      .   S
    C553   C555      1.41016      .   S
    C2982  C2984     1.41016      .   S
    C2413  H2451     1.08260      .   S
    C2665  H2703     1.08260      .   S
    C285   H323      1.08260      .   S
    C218   H256      1.08260      .   S
    C2917  H2955     1.08260      .   S
    C614   H652      1.08260      .   S
    C1341  C2483     1.48181      .   S
    C1341  O244      1.26278      .   S
    C1632  C355      1.48126      .   S
    C1632  O2943     1.26278      .   S
    C1947  C558      1.48129      .   S
    C1947  O2691     1.26278      .   S
    C1089  C2987     1.48129      .   S
    C1089  O311      1.26278      .   S
    C2230  C159      1.48181      .   S
    C2230  O2439     1.26278      .   S
    C821   C2735     1.48126      .   S
    C821   O640      1.26278      .   S
    O2499  C2479     1.26629      .   S
    O371   C351      1.26682      .   S
    O574   C554      1.26639      .   S
    O2751  C2731     1.26682      .   S
    O175   C155      1.26629      .   S
    O3003  C2983     1.26639      .   S
    C2419  O2250     1.26278      .   S
    C2419  C1090     1.48181      .   S
    C2923  O1652     1.26278      .   S
    C2923  C822      1.48126      .   S
    C2671  O1967     1.26278      .   S
    C2671  C1342     1.48153      .   S
    C224   O1361     1.26278      .   S
    C224   C1948     1.48181      .   S
    C291   O1109     1.26278      .   S
    C291   C2231     1.48153      .   S
    C620   O841      1.26278      .   S
    C620   C1633     1.48126      .   S
    C2987  C2989     1.40817      .   S
    C2735  C2737     1.40857      .   S
    C159   C161      1.40860      .   S
    C2483  C2485     1.40860      .   S
    C355   C357      1.40857      .   S
    C558   C560      1.40817      .   S
    O2739  C3096     1.26899      .   S
    O359   C3064     1.26899      .   S
    O2991  C3056     1.26899      .   S
    O163   C3040     1.26899      .   S
    O562   C3088     1.26899      .   S
    O2487  C3048     1.26899      .   S
    C1631  C1633     1.40426      .   S
    C1631  C1628     1.40238      .   S
    C1340  C1342     1.40426      .   S
    C1340  C1337     1.40238      .   S
    C820   C822      1.40426      .   S
    C820   C407      1.40238      .   S
    C2229  C2231     1.40426      .   S
    C2229  C2226     1.40238      .   S
    C1946  C1948     1.40426      .   S
    C1946  C1943     1.40238      .   S
    C1088  C1090     1.40426      .   S
    C1088  C1085     1.40238      .   S
    C555   C554      1.47969      .   S
    C555   C559      1.40076      .   S
    C2480  C2479     1.47969      .   S
    C2480  C2484     1.40062      .   S
    C2984  C2983     1.47969      .   S
    C2984  C2988     1.40076      .   S
    C156   C155      1.47969      .   S
    C156   C160      1.40062      .   S
    C352   C351      1.47969      .   S
    C352   C356      1.40113      .   S
    C2732  C2731     1.47969      .   S
    C2732  C2736     1.40113      .   S
    H376   C330      1.08306      .   S
    H2756  C2710     1.08306      .   S
    H3008  C2962     1.08296      .   S
    H579   C533      1.08296      .   S
    H180   C134      1.08294      .   S
    H2504  C2458     1.08294      .   S
    O1352  C1328     1.27495      .   S
    O1643  C1619     1.27495      .   S
    O2241  C2217     1.27495      .   S
    O1958  C1934     1.27495      .   S
    O1100  C1076     1.27495      .   S
    O832   C398      1.27495      .   S
    C554   O2689     1.26993      .   S
    C2479  O242      1.27038      .   S
    C155   O2437     1.27038      .   S
    C2983  O309      1.26993      .   S
    C351   O2941     1.27044      .   S
    C2731  O638      1.27044      .   S
    H1981  C1943     1.08330      .   S
    H1123  C1085     1.08330      .   S
    H855   C407      1.08279  1_565   S
    H1375  C1337     1.08281  1_655   S
    H1666  C1628     1.08279  1_655   S
    H2264  C2226     1.08281  1_565   S
    C1090  C1092     1.40860      .   S
    C1342  C1344     1.40878      .   S
    C2231  C2233     1.40878      .   S
    C1633  C1635     1.40857      .   S
    C1948  C1950     1.40860      .   S
    C822   C824      1.40857      .   S
    C1943  C1945     1.41016      .   S
    C1628  C1630     1.41016      .   S
    C1085  C1087     1.41016      .   S
    C2226  C2228     1.41016      .   S
    C407   C819      1.41016      .   S
    C1337  C1339     1.41016      .   S
    C357   C356      1.39027      .   S
    C357   H391      1.08287      .   S
    C560   C559      1.39027      .   S
    C560   H594      1.08327      .   S
    C2485  C2484     1.39027      .   S
    C2485  H2519     1.08338      .   S
    C2737  C2736     1.39027      .   S
    C2737  H2771     1.08287      .   S
    C161   C160      1.39027      .   S
    C161   H195      1.08338      .   S
    C2989  C2988     1.39027      .   S
    C2989  H3023     1.08327      .   S
    C2988  H3022     1.08353      .   S
    C160   H194      1.08312      .   S
    C2736  H2770     1.08312      .   S
    C559   H593      1.08353      .   S
    C356   H390      1.08312      .   S
    C2484  H2518     1.08312      .   S
    C3096  O625      1.26899      .   S
    C3096  C3097     1.48115      .   S
    C3064  O2928     1.26899      .   S
    C3064  C3065     1.48115      .   S
    C3056  O296      1.26899      .   S
    C3056  C3057     1.48115      .   S
    C3040  O2424     1.26899      .   S
    C3040  C3041     1.48115      .   S
    C3088  O2676     1.26899      .   S
    C3088  C3089     1.48115      .   S
    C3048  O229      1.26899      .   S
    C3048  C3049     1.48115      .   S
    O565   C2650     1.26777      .   S
    O2742  C599      1.26808      .   S
    O362   C2902     1.26808      .   S
    O2490  C98       1.26792      .   S
    O166   C2398     1.26792      .   S
    O2994  C270      1.26777      .   S
    C2458  C3049     1.40603      .   S
    C2458  C2459     1.39584      .   S
    C2710  C3097     1.40603      .   S
    C2710  C2711     1.39584      .   S
    C330   C3065     1.40603      .   S
    C330   C331      1.39584      .   S
    C134   C3041     1.40603      .   S
    C134   C135      1.39584      .   S
    C533   C3089     1.40603      .   S
    C533   C534      1.39584      .   S
    C2962  C3057     1.40603      .   S
    C2962  C2963     1.39584      .   S
    C398   O833      1.27302      .   S
    C398   C399      1.50873      .   S
    C1328  O1353     1.27276      .   S
    C1328  C1329     1.50873      .   S
    C1619  O1644     1.27302      .   S
    C1619  C1620     1.50873      .   S
    C2217  O2242     1.27276      .   S
    C2217  C2218     1.50873      .   S
    C1934  O1959     1.27239      .   S
    C1934  C1935     1.50873      .   S
    C1076  O1101     1.27239      .   S
    C1076  C1077     1.50873      .   S
    H2757  C2711     1.08338      .   S
    H377   C331      1.08338      .   S
    H3009  C2963     1.08338      .   S
    H2505  C2459     1.08338      .   S
    H580   C534      1.08338      .   S
    H181   C135      1.08338      .   S
    H1975  C1933     1.08234      .   S
    H1369  C1327     1.08234      .   S
    H1660  C1618     1.08234      .   S
    H849   C397      1.08234      .   S
    H1117  C1075     1.08234      .   S
    H2258  C2216     1.08234      .   S
    C1635  H1669     1.08287      .   S
    C1635  C1634     1.39027      .   S
    C1092  H1126     1.08338      .   S
    C1092  C1091     1.39027      .   S
    C824   H858      1.08287      .   S
    C824   C823      1.39027      .   S
    C1344  H1378     1.08289      .   S
    C1344  C1343     1.39027      .   S
    C2233  H2267     1.08289      .   S
    C2233  C2232     1.39027      .   S
    C1950  H1984     1.08338      .   S
    C1950  C1949     1.39027      .   S
    C3065  C2899     1.40603      .   S
    C3097  C596      1.40603      .   S
    C3057  C267      1.40603      .   S
    C3049  C197      1.40603      .   S
    C3041  C2395     1.40603      .   S
    C3089  C2647     1.40603      .   S
    C2711  C3099     1.40567      .   S
    C135   C3043     1.40557      .   S
    C534   C3091     1.40558      .   S
    C331   C3067     1.40567      .   S
    C2459  C3051     1.40557      .   S
    C2963  C3059     1.40558      .   S
    C2228  C2232     1.40111      .   S
    C2228  C2227     1.47969  1_545   S
    C1087  C1091     1.40062      .   S
    C1087  C1086     1.47969      .   S
    C1945  C1949     1.40062      .   S
    C1945  C1944     1.47969      .   S
    C819   C823      1.40113      .   S
    C819   C408      1.47969  1_545   S
    C1339  C1343     1.40111      .   S
    C1339  C1338     1.47969  1_455   S
    C1630  C1634     1.40113      .   S
    C1630  C1629     1.47969  1_455   S
    C599   O627      1.27040      .   S
    C599   C600      1.49256      .   S
    C98    O231      1.27083      .   S
    C98    C204      1.49198      .   S
    C270   O298      1.27101      .   S
    C270   C271      1.49193      .   S
    C2398  O2426     1.27083      .   S
    C2398  C2399     1.49198      .   S
    C2902  O2930     1.27040      .   S
    C2902  C2903     1.49256      .   S
    C2650  O2678     1.27101      .   S
    C2650  C2651     1.49193      .   S
    O1649  C1629     1.26682      .   S
    O838   C408      1.26682      .   S
    O1106  C1086     1.26629      .   S
    O2247  C2227     1.26672      .   S
    O1358  C1338     1.26672      .   S
    O1964  C1944     1.26629      .   S
    H1113  C1067     1.08257      .   S
    H845   C787      1.08257      .   S
    H1656  C1610     1.08257      .   S
    H1365  C1319     1.08257      .   S
    H1971  C1925     1.08257      .   S
    H2254  C2208     1.08257      .   S
    C1327  C1329     1.41110      .   S
    C1327  C1330     1.41201      .   S
    C2216  C2218     1.41110      .   S
    C2216  C2219     1.41201      .   S
    C397   C399      1.41088      .   S
    C397   C400      1.41201      .   S
    C1618  C1620     1.41088      .   S
    C1618  C1621     1.41201      .   S
    C1933  C1935     1.41150      .   S
    C1933  C1936     1.41201      .   S
    C1075  C1077     1.41150      .   S
    C1075  C1078     1.41201      .   S
    C2218  C2222     1.41033      .   S
    C1329  C1333     1.41033      .   S
    C1620  C1624     1.41033      .   S
    C1935  C1939     1.41033      .   S
    C1077  C1081     1.41033      .   S
    C399   C403      1.41033      .   S
    C2232  H2266     1.08292      .   S
    C1634  H1668     1.08312      .   S
    C1343  H1377     1.08292      .   S
    C1949  H1983     1.08312      .   S
    C1091  H1125     1.08312      .   S
    C823   H857      1.08312      .   S
    H2947  C2901     1.08257      .   S
    H2443  C2397     1.08257      .   S
    H248   C97       1.08257      .   S
    H315   C269      1.08257      .   S
    H644   C598      1.08257      .   S
    H2695  C2649     1.08257      .   S
    C2227  O1107     1.27049      .   S
    C408   O1650     1.27044      .   S
    C1338  O1965     1.27049      .   S
    C1629  O839      1.27044      .   S
    C1944  O1359     1.27038      .   S
    C1086  O2248     1.27038      .   S
    C1067  C1610     1.39819      .   S
    C1067  C1069     1.40697      .   S
    C787   C1925     1.39819      .   S
    C787   C789      1.40665      .   S
    C1319  C2208     1.39819      .   S
    C1319  C1321     1.40707      .   S
    C2208  C2210     1.40707      .   S
    C1925  C1927     1.40697      .   S
    C1610  C1612     1.40665      .   S
    C197   H246      1.08349      .   S
    C197   C96       1.39584      .   S
    C2647  H2693     1.08296      .   S
    C2647  C2648     1.39584      .   S
    C596   H642      1.08306      .   S
    C596   C597      1.39584      .   S
    C2899  H2945     1.08306      .   S
    C2899  C2900     1.39584      .   S
    C2395  H2441     1.08349      .   S
    C2395  C2396     1.39584      .   S
    C267   H313      1.08296      .   S
    C267   C268      1.39584      .   S
    O1349  C1926     1.26837      .   S
    O1640  C788      1.26808      .   S
    O2238  C1068     1.26837      .   S
    O829   C1611     1.26808      .   S
    O1097  C2209     1.26792      .   S
    O1955  C1320     1.26792      .   S
    C3059  C268      1.40558      .   S
    C3059  C3058     1.48157      .   S
    C3067  C2900     1.40567      .   S
    C3067  C3066     1.48126      .   S
    C3099  C597      1.40567      .   S
    C3099  C3098     1.48126      .   S
    C3043  C2396     1.40611      .   S
    C3043  C3042     1.48055      .   S
    C3051  C96       1.40611      .   S
    C3051  C3050     1.48055      .   S
    C3091  C2648     1.40558      .   S
    C3091  C3090     1.48157      .   S
    C97    C204      1.40707      .   S
    C97    C2586     1.39819      .   S
    C598   C600      1.40665      .   S
    C598   C2838     1.39819      .   S
    C2901  C2903     1.40665      .   S
    C2901  C661      1.39819      .   S
    C2397  C2399     1.40707      .   S
    C2397  C464      1.39819      .   S
    C2649  C2651     1.40726      .   S
    C2649  C3        1.39819      .   S
    C269   C271      1.40726      .   S
    C269   C2334     1.39819      .   S
    C271   C272      1.40821      .   S
    C2651  C2652     1.40821      .   S
    C204   C205      1.40840      .   S
    C2903  C2904     1.40850      .   S
    C600   C601      1.40850      .   S
    C2399  C2400     1.40840      .   S
    H2755  C2709     1.08337      .   S
    H179   C133      1.08295      .   S
    H375   C329      1.08337      .   S
    H3007  C2961     1.08308      .   S
    H578   C532      1.08308      .   S
    H2503  C2457     1.08295      .   S
    H850   C400      1.08341  1_545   S
    H1976  C1936     1.08218      .   S
    H1370  C1330     1.08299  1_455   S
    H1661  C1621     1.08341  1_455   S
    H1118  C1078     1.08218      .   S
    H2259  C2219     1.08299  1_545   S
    O2740  C3098     1.26804      .   S
    O2488  C3050     1.26848      .   S
    O164   C3042     1.26848      .   S
    O563   C3090     1.26797      .   S
    O2992  C3058     1.26797      .   S
    O360   C3066     1.26804      .   S
    C1621  C1623     1.41131      .   S
    C1936  C1938     1.41161      .   S
    C400   C402      1.41131      .   S
    C2219  C2221     1.41150      .   S
    C1330  C1332     1.41150      .   S
    C1078  C1080     1.41161      .   S
    C403   H851      1.08286      .   S
    C403   C404      1.40647      .   S
    C1333  H1371     1.08264      .   S
    C1333  C1334     1.40647      .   S
    C1081  H1119     1.08224      .   S
    C1081  C1082     1.40647      .   S
    C1939  H1977     1.08224      .   S
    C1939  C1940     1.40647      .   S
    C1624  H1662     1.08286      .   S
    C1624  C1625     1.40647      .   S
    C2222  H2260     1.08264      .   S
    C2222  C2223     1.40647      .   S
    C268   H314      1.08338      .   S
    C2648  H2694     1.08338      .   S
    C96    H247      1.08338      .   S
    C2900  H2946     1.08338      .   S
    C2396  H2442     1.08338      .   S
    C597   H643      1.08338      .   S
    C1069  C1068     1.49130      .   S
    C1069  C1070     1.40882      .   S
    C789   C788      1.49256      .   S
    C789   C790      1.40850      .   S
    C1927  C1926     1.49130      .   S
    C1927  C1928     1.40882      .   S
    C1321  C1320     1.49198      .   S
    C1321  C1322     1.40840      .   S
    C2210  C2209     1.49198      .   S
    C2210  C2211     1.40840      .   S
    C1612  C1611     1.49256      .   S
    C1612  C1613     1.40850      .   S
    C3090  O2677     1.26797      .   S
    C3098  O626      1.26804      .   S
    C3066  O2929     1.26804      .   S
    C3058  O297      1.26797      .   S
    C3050  O230      1.26793      .   S
    C3042  O2425     1.26793      .   S
    C2209  O2237     1.27083      .   S
    C788   O828      1.27040      .   S
    C1926  O1954     1.27072      .   S
    C1320  O1348     1.27083      .   S
    C1611  O1639     1.27040      .   S
    C1068  O1096     1.27072      .   S
    C329   C2961     1.39567      .   S
    C329   C3227     1.40880      .   S
    C133   C2457     1.39567      .   S
    C133   C3221     1.40890      .   S
    C2709  C532      1.39567      .   S
    C2709  C3235     1.40880      .   S
    C532   C3233     1.40848      .   S
    C2457  C3223     1.40890      .   S
    C2961  C3225     1.40848      .   S
    H2884  C2838     1.08257      .   S
    H2632  C2586     1.08257      .   S
    H707   C661      1.08257      .   S
    H49    C3        1.08257      .   S
    H2380  C2334     1.08257      .   S
    H510   C464      1.08257      .   S
    O561   C3232     1.26845      .   S
    O2486  C3222     1.26845      .   S
    O162   C3220     1.26845      .   S
    O358   C3226     1.26845      .   S
    O2738  C3234     1.26845      .   S
    O2990  C3224     1.26845      .   S
    C2586  C2588     1.40707      .   S
    C2334  C2336     1.40726      .   S
    C2838  C2840     1.40697      .   S
    C3     C5        1.40726      .   S
    C661   C663      1.40697      .   S
    C464   C466      1.40707      .   S
    C272   H316      1.08261      .   S
    C272   C2337     1.40510      .   S
    C601   H645      1.08261      .   S
    C601   C2841     1.40510      .   S
    C2400  H2444     1.08261      .   S
    C2400  C467      1.40510      .   S
    C2652  H2696     1.08261      .   S
    C2652  C6        1.40510      .   S
    C205   H249      1.08261      .   S
    C205   C2589     1.40510      .   S
    C2904  H2948     1.08261      .   S
    C2904  C664      1.40510      .   S
    C2221  C2223     1.41009      .   S
    C2221  C2220     1.50834      .   S
    C1332  C1334     1.41009      .   S
    C1332  C1331     1.50834      .   S
    C1623  C1625     1.41009      .   S
    C1623  C1622     1.50834      .   S
    C1938  C1940     1.41009      .   S
    C1938  C1937     1.50834      .   S
    C1080  C1082     1.41009      .   S
    C1080  C1079     1.50834      .   S
    C402   C404      1.41009      .   S
    C402   C401      1.50834      .   S
    C2223  H2261     1.08243      .   S
    C404   H852      1.08263      .   S
    C1625  H1663     1.08263      .   S
    C1940  H1978     1.08230      .   S
    C1334  H1372     1.08243      .   S
    C1082  H1120     1.08230      .   S
    C2211  C1322     1.40510      .   S
    C2211  H2255     1.08261      .   S
    C1322  H1366     1.08261      .   S
    C1613  C1070     1.40510      .   S
    C1613  H1657     1.08261      .   S
    C1928  C790      1.40510      .   S
    C1928  H1972     1.08261      .   S
    C790   H846      1.08261      .   S
    C1070  H1114     1.08261      .   S
    C3225  C3224     1.40622      .   S
    C3225  C266      1.40848      .   S
    C3221  C3220     1.40622      .   S
    C3221  C2394     1.40836      .   S
    C3223  C3222     1.40622      .   S
    C3223  C196      1.40836      .   S
    C3235  C3234     1.40622      .   S
    C3235  C595      1.40880      .   S
    C3233  C3232     1.40622      .   S
    C3233  C2646     1.40848      .   S
    C3227  C3226     1.40622      .   S
    C3227  C2898     1.40880      .   S
    C3222  O228      1.26845      .   S
    C3224  O295      1.26845      .   S
    C3234  O624      1.26845      .   S
    C3232  O2675     1.26845      .   S
    C3226  O2927     1.26845      .   S
    C3220  O2423     1.26845      .   S
    C2336  C2337     1.40821      .   S
    C2336  C2335     1.49193      .   S
    C466   C467      1.40840      .   S
    C466   C465      1.49198      .   S
    C5     C6        1.40821      .   S
    C5     C4        1.49193      .   S
    C2588  C2589     1.40840      .   S
    C2588  C2587     1.49198      .   S
    C2840  C2841     1.40882      .   S
    C2840  C2839     1.49130      .   S
    C663   C664      1.40882      .   S
    C663   C662      1.49130      .   S
    C6     H50       1.08261      .   S
    C2841  H2885     1.08261      .   S
    C2589  H2633     1.08261      .   S
    C664   H708      1.08261      .   S
    C2337  H2381     1.08261      .   S
    C467   H511      1.08261      .   S
    O1645  C1622     1.27469  1_455   S
    O1102  C1079     1.27469      .   S
    O1354  C1331     1.27469  1_455   S
    O2243  C2220     1.27469  1_545   S
    O1960  C1937     1.27469      .   S
    O834   C401      1.27469  1_545   S
    C401   O835      1.27252      .   S
    C1331  O1355     1.27273      .   S
    C1937  O1961     1.27285      .   S
    C2220  O2244     1.27273      .   S
    C1079  O1103     1.27285      .   S
    C1622  O1646     1.27252      .   S
    O1647  C3124     1.27227      .   S
    O1962  C3188     1.27123      .   S
    O1104  C3156     1.27123      .   S
    O836   C3124     1.27227      .   S
    O1356  C3188     1.27233      .   S
    O2245  C3156     1.27233      .   S
    C595   C2646     1.39567      .   S
    C595   H641      1.08337      .   S
    C266   C2898     1.39567      .   S
    C266   H312      1.08308      .   S
    C2394  C196      1.39567      .   S
    C2394  H2440     1.08350      .   S
    C2646  H2692     1.08308      .   S
    C196   H245      1.08350      .   S
    C2898  H2944     1.08337      .   S
    C3188  C3189     1.50353      .   S
    C3124  C3125     1.50353      .   S
    C3156  C3157     1.50353      .   S
    O2616  C662      1.26837      .   S
    O2868  C465      1.26792      .   S
    O691   C2587     1.26792      .   S
    O494   C2839     1.26837      .   S
    O33    C2335     1.26777      .   S
    O2364  C4        1.26777      .   S
    C3125  C405      1.40869      .   S
    C3125  C1626     1.40869      .   S
    C3189  C1335     1.40922      .   S
    C3189  C1941     1.40868      .   S
    C3157  C2224     1.40922      .   S
    C3157  C1083     1.40868      .   S
    H1664  C1626     1.08260      .   S
    H853   C405      1.08260      .   S
    H1121  C1083     1.08260      .   S
    H2262  C2224     1.08260      .   S
    H1979  C1941     1.08260      .   S
    H1373  C1335     1.08260      .   S
    C2335  O2363     1.27101      .   S
    C465   O493      1.27083      .   S
    C4     O32       1.27101      .   S
    C2839  O2867     1.27072      .   S
    C2587  O2615     1.27083      .   S
    C662   O690      1.27072      .   S
    O826   C3120     1.26899      .   S
    O2235  C3152     1.26899      .   S
    O1637  C3120     1.26899      .   S
    O1094  C3152     1.26899      .   S
    O1346  C3184     1.26899      .   S
    O1952  C3184     1.26899      .   S
    C1335  C1336     1.40693      .   S
    C2224  C2225     1.40693      .   S
    C405   C406      1.40693      .   S
    C1083  C1084     1.40693      .   S
    C1941  C1942     1.40693      .   S
    C1626  C1627     1.40693      .   S
    O2866  C3082     1.26848      .   S
    O492   C3082     1.26793      .   S
    O689   C3106     1.26848      .   S
    O31    C3026     1.26797      .   S
    O2614  C3106     1.26793      .   S
    O2362  C3026     1.26797      .   S
    C406   H854      1.08308      .   S
    C406   C3127     1.41318      .   S
    C1627  H1665     1.08308      .   S
    C1627  C3127     1.41318      .   S
    C2225  H2263     1.08308      .   S
    C2225  C3159     1.41318      .   S
    C1942  H1980     1.08308      .   S
    C1942  C3191     1.41318      .   S
    C1084  H1122     1.08308      .   S
    C1084  C3159     1.41318      .   S
    C1336  H1374     1.08308      .   S
    C1336  C3191     1.41318      .   S
    C3120  C3121     1.48115      .   S
    C3152  C3153     1.48115      .   S
    C3184  C3185     1.48115      .   S
    C3026  C3027     1.48157      .   S
    C3082  C3083     1.48055      .   S
    C3106  C3107     1.48055      .   S
    C3159  C3158     1.42548      .   S
    C3127  C3126     1.42548      .   S
    C3191  C3190     1.42548      .   S
    C3107  C2585     1.40611      .   S
    C3107  C660      1.40557      .   S
    C3027  C2333     1.40558      .   S
    C3027  C2        1.40558      .   S
    C3083  C463      1.40611      .   S
    C3083  C2837     1.40557      .   S
    C3190  O1357     1.27301      .   S
    C3190  O1963     1.27301      .   S
    C3158  O1105     1.27301      .   S
    C3158  O2246     1.27301      .   S
    C3126  O837      1.27301      .   S
    C3126  O1648     1.27301      .   S
    O2180  C2157     1.27469      .   S
    O1417  C1394     1.27469      .   S
    O1039  C2000     1.27469  1_455   S
    O897   C874      1.27469  1_455   S
    O810   C1583     1.27469  1_545   S
    O1165  C1142     1.27469  1_545   S
    H2379  C2333     1.08338      .   S
    H706   C660      1.08338      .   S
    H2883  C2837     1.08338      .   S
    H2631  C2585     1.08338      .   S
    H48    C2        1.08338      .   S
    H509   C463      1.08338      .   S
    O29    C3216     1.26845      .   S
    O2360  C3216     1.26845      .   S
    O2864  C3230     1.26845      .   S
    O2612  C3236     1.26845      .   S
    O687   C3236     1.26845      .   S
    O490   C3230     1.26845      .   S
    C463   C462      1.39584      .   S
    C2585  C2584     1.39584      .   S
    C2333  C2332     1.39584      .   S
    C2     C1        1.39584      .   S
    C2837  C2836     1.39584      .   S
    C660   C659      1.39584      .   S
    O503   C483      1.26672      .   S
    O700   C680      1.26629      .   S
    O2373  C2353     1.26639      .   S
    O2625  C2605     1.26672      .   S
    O42    C22       1.26639      .   S
    O2877  C2857     1.26629      .   S
    C3121  C785      1.40603      .   S
    C3121  C1608     1.40603      .   S
    C3185  C1317     1.40603      .   S
    C3185  C1923     1.40603      .   S
    C3153  C1065     1.40603      .   S
    C3153  C2206     1.40603      .   S
    C3216  C3217     1.40622      .   S
    C3230  C3231     1.40622      .   S
    C3236  C3237     1.40622      .   S
    C659   H705      1.08294      .   S
    C659   C3105     1.40603      .   S
    C462   H508      1.08349      .   S
    C462   C3081     1.40603      .   S
    C2836  H2882     1.08294      .   S
    C2836  C3081     1.40603      .   S
    C1     H47       1.08296      .   S
    C1     C3025     1.40603      .   S
    C2584  H2630     1.08349      .   S
    C2584  C3105     1.40603      .   S
    C2332  H2378     1.08296      .   S
    C2332  C3025     1.40603      .   S
    H1433  C1393     1.08218      .   S
    H1055  C1999     1.08299  1_455   S
    H913   C873      1.08292  1_455   S
    H2196  C2156     1.08218      .   S
    H1598  C1582     1.08292  1_545   S
    H1181  C1141     1.08299  1_545   S
    H1111  C1065     1.08294      .   S
    H1654  C1608     1.08306      .   S
    H843   C785      1.08306      .   S
    H1969  C1923     1.08294      .   S
    H2252  C2206     1.08349      .   S
    H1363  C1317     1.08349      .   S
    C3081  C3080     1.48115      .   S
    C3105  C3104     1.48115      .   S
    C3025  C3024     1.48115      .   S
    C2157  O2181     1.27285      .   S
    C2157  C2158     1.50834      .   S
    C1142  O1166     1.27273      .   S
    C1142  C1143     1.50834      .   S
    C1394  O1418     1.27285      .   S
    C1394  C1395     1.50834      .   S
    C2000  O1040     1.27273      .   S
    C2000  C2001     1.50834      .   S
    C874   O898      1.27227      .   S
    C874   C875      1.50834      .   S
    C1583  O811      1.27227      .   S
    C1583  C1584     1.50834      .   S
    C3024  O2361     1.26899      .   S
    C3024  O30       1.26899      .   S
    C3080  O491      1.26899      .   S
    C3080  O2865     1.26899      .   S
    C3104  O688      1.26899      .   S
    C3104  O2613     1.26899      .   S
    C1317  C1318     1.39584      .   S
    C1923  C1924     1.39584      .   S
    C1065  C1066     1.39584      .   S
    C785   C786      1.39584      .   S
    C2206  C2207     1.39584      .   S
    C1608  C1609     1.39584      .   S
    H59    C21       1.08317      .   S
    H2642  C2604     1.08281      .   S
    H262   C482      1.08281      .   S
    H2894  C2856     1.08330      .   S
    H717   C679      1.08330      .   S
    H2390  C2352     1.08317      .   S
    C2353  O43       1.26993      .   S
    C2353  C2354     1.47969      .   S
    C2605  O701      1.27049      .   S
    C2605  C2606     1.47969      .   S
    C483   O2878     1.27049      .   S
    C483   C484      1.47969      .   S
    C2857  O504      1.27038      .   S
    C2857  C2858     1.47969      .   S
    C22    O2374     1.26993      .   S
    C22    C23       1.47969      .   S
    C680   O2626     1.27038      .   S
    C680   C681      1.47969      .   S
    C873   C875      1.41102      .   S
    C873   C870      1.41201      .   S
    C1582  C1584     1.41102      .   S
    C1582  C1579     1.41201      .   S
    C1393  C1395     1.41161      .   S
    C1393  C1390     1.41201      .   S
    C1141  C1143     1.41150      .   S
    C1141  C1138     1.41201      .   S
    C1999  C2001     1.41150      .   S
    C1999  C1996     1.41201      .   S
    C2156  C2158     1.41161      .   S
    C2156  C2153     1.41201      .   S
    C1395  C1397     1.41009      .   S
    C2001  C2003     1.41009      .   S
    C875   C877      1.41009      .   S
    C1143  C1145     1.41009      .   S
    C2158  C2160     1.41009      .   S
    C1584  C1586     1.41009      .   S
    C3217  C0        1.40848      .   S
    C3217  C2331     1.40848      .   S
    C3231  C2835     1.40890      .   S
    C3231  C461      1.40836      .   S
    C3237  C658      1.40890      .   S
    C3237  C2583     1.40836      .   S
    C2352  C2354     1.41016      .   S
    C2352  C2355     1.40238      .   S
    C2604  C2606     1.41016      .   S
    C2604  C2607     1.40238      .   S
    C21    C23       1.41016      .   S
    C21    C24       1.40238      .   S
    C482   C484      1.41016      .   S
    C482   C485      1.40238      .   S
    C679   C681      1.41016      .   S
    C679   C682      1.40238      .   S
    C2856  C2858     1.41016      .   S
    C2856  C2859     1.40238      .   S
    H2881  C2835     1.08295      .   S
    H507   C461      1.08350      .   S
    H2629  C2583     1.08350      .   S
    H704   C658      1.08295      .   S
    H46    C0        1.08308      .   S
    H2377  C2331     1.08308      .   S
    C2354  C2358     1.40076      .   S
    C484   C488      1.40111      .   S
    C681   C685      1.40062      .   S
    C23    C27       1.40076      .   S
    C2606  C2610     1.40111      .   S
    C2858  C2862     1.40062      .   S
    H912   C870      1.08234      .   S
    H1597  C1579     1.08234      .   S
    H1054  C1996     1.08234      .   S
    H1180  C1138     1.08234      .   S
    H1432  C1390     1.08234      .   S
    H2195  C2153     1.08234      .   S
    C1318  H1364     1.08338      .   S
    C1318  C3187     1.40611      .   S
    C1924  H1970     1.08338      .   S
    C1924  C3187     1.40557      .   S
    C1066  H1112     1.08338      .   S
    C1066  C3155     1.40557      .   S
    C2207  H2253     1.08338      .   S
    C2207  C3155     1.40611      .   S
    C786   H844      1.08338      .   S
    C786   C3123     1.40567      .   S
    C1609  H1655     1.08338      .   S
    C1609  C3123     1.40567      .   S
    C1579  C1581     1.41116      .   S
    C1138  C1140     1.41110      .   S
    C2153  C2155     1.41150      .   S
    C1996  C1998     1.41110      .   S
    C1390  C1392     1.41150      .   S
    C870   C872      1.41116      .   S
    H718   C682      1.08314      .   S
    H263   C485      1.08334      .   S
    H2391  C2355     1.08273      .   S
    H60    C24       1.08273      .   S
    H2643  C2607     1.08334      .   S
    H2895  C2859     1.08314      .   S
    C658   C2520     1.39567      .   S
    C0     C2268     1.39567      .   S
    C2583  C721      1.39567      .   S
    C2331  C63       1.39567      .   S
    C2835  C392      1.39567      .   S
    C461   C2772     1.39567      .   S
    O1042  C3198     1.27301      .   S
    O813   C3134     1.27301      .   S
    O1168  C3166     1.27301      .   S
    O900   C3134     1.27301      .   S
    O2183  C3166     1.27301      .   S
    O1420  C3198     1.27301      .   S
    C2355  C2357     1.40426      .   S
    C2859  C2861     1.40426      .   S
    C2607  C2609     1.40426      .   S
    C682   C684      1.40426      .   S
    C24    C26       1.40426      .   S
    C485   C487      1.40426      .   S
    C1145  H1183     1.08243      .   S
    C1145  C1144     1.40647      .   S
    C2003  H1057     1.08243      .   S
    C2003  C2002     1.40647      .   S
    C1397  H1435     1.08230      .   S
    C1397  C1396     1.40647      .   S
    C1586  H1600     1.08289      .   S
    C1586  C1585     1.40647      .   S
    C877   H915      1.08289      .   S
    C877   C876      1.40647      .   S
    C2160  H2198     1.08230      .   S
    C2160  C2159     1.40647      .   S
    C3123  C3122     1.48126      .   S
    C3187  C3186     1.48055      .   S
    C3155  C3154     1.48055      .   S
    C2358  H2392     1.08353      .   S
    C2358  C2359     1.39027      .   S
    C488   H264      1.08292      .   S
    C488   C489      1.39027      .   S
    C685   H719      1.08312      .   S
    C685   C686      1.39027      .   S
    C2610  H2644     1.08292      .   S
    C2610  C2611     1.39027      .   S
    C2862  H2896     1.08312      .   S
    C2862  C2863     1.39027      .   S
    C27    H61       1.08353      .   S
    C27    C28       1.39027      .   S
    C3198  C3199     1.42548      .   S
    C3166  C3167     1.42548      .   S
    C3134  C3135     1.42548      .   S
    C2155  C2159     1.41033      .   S
    C2155  C2154     1.50873      .   S
    C872   C876      1.41033      .   S
    C872   C871      1.50873      .   S
    C1392  C1396     1.41033      .   S
    C1392  C1391     1.50873      .   S
    C1998  C2002     1.41033      .   S
    C1998  C1997     1.50873      .   S
    C1140  C1144     1.41033      .   S
    C1140  C1139     1.50873      .   S
    C1581  C1585     1.41033      .   S
    C1581  C1580     1.50873      .   S
    O698   C3108     1.27123      .   S
    O2371  C3028     1.27177      .   S
    O501   C3084     1.27233      .   S
    O40    C3028     1.27177      .   S
    O2875  C3084     1.27123      .   S
    O2623  C3108     1.27233      .   S
    C2357  C2359     1.40817      .   S
    C2357  C1404     1.48129      .   S
    C26    C28       1.40817      .   S
    C26    C2167     1.48129      .   S
    C684   C686      1.40860      .   S
    C684   C2010     1.48181      .   S
    C2609  C2611     1.40878      .   S
    C2609  C884      1.48153      .   S
    C2861  C2863     1.40860      .   S
    C2861  C1152     1.48181      .   S
    C487   C489      1.40878      .   S
    C487   C797      1.48153      .   S
    C1585  H1599     1.08261      .   S
    C876   H914      1.08261      .   S
    C1144  H1182     1.08264      .   S
    C2002  H1056     1.08264      .   S
    C2159  H2197     1.08224      .   S
    C1396  H1434     1.08224      .   S
    C686   H720      1.08338      .   S
    C2359  H2393     1.08327      .   S
    C2611  H2645     1.08289      .   S
    C28    H62       1.08327      .   S
    C2863  H2897     1.08338      .   S
    C489   H265      1.08289      .   S
    C2772  H2818     1.08350      .   S
    C2772  C3229     1.40836      .   S
    C392   H444      1.08295      .   S
    C392   C3229     1.40890      .   S
    C2268  H2314     1.08337      .   S
    C2268  C3219     1.40880      .   S
    C63    H112      1.08337      .   S
    C63    C3219     1.40880      .   S
    C2520  H2566     1.08295      .   S
    C2520  C3239     1.40890      .   S
    C721   H767      1.08350      .   S
    C721   C3239     1.40836      .   S
    O1163  C1139     1.27495      .   S
    O1037  C1997     1.27495      .   S
    O895   C871      1.27495      .   S
    O808   C1580     1.27495      .   S
    O2178  C2154     1.27495      .   S
    O1415  C1391     1.27495      .   S
    C3122  O827      1.26804      .   S
    C3122  O1638     1.26804      .   S
    C3154  O2236     1.26793      .   S
    C3154  O1095     1.26848      .   S
    C3186  O1347     1.26793      .   S
    C3186  O1953     1.26848      .   S
    C3028  C3029     1.50353      .   S
    C3084  C3085     1.50353      .   S
    C3108  C3109     1.50353      .   S
    O2186  C2167     1.27271      .   S
    O816   C797      1.27213      .   S
    O1171  C1152     1.27224      .   S
    O1045  C2010     1.27224      .   S
    O903   C884      1.27213      .   S
    O1423  C1404     1.27271      .   S
    C3229  C3228     1.40622      .   S
    C3239  C3238     1.40622      .   S
    C3219  C3218     1.40622      .   S
    C1580  O809      1.27276      .   S
    C871   O896      1.27276      .   S
    C1139  O1164     1.27276      .   S
    C1391  O1416     1.27239      .   S
    C1997  O1038     1.27276      .   S
    C2154  O2179     1.27239      .   S
    C797   O2880     1.26278      .   S
    C1404  O45       1.26278      .   S
    C2010  O2628     1.26278      .   S
    C884   O703      1.26278      .   S
    C1152  O506      1.26278      .   S
    C2167  O2376     1.26278      .   S
    H2887  C2845     1.08252      .   S
    H2635  C2593     1.08252      .   S
    H710   C668      1.08252      .   S
    H513   C471      1.08252      .   S
    H52    C10       1.08252      .   S
    H2383  C2341     1.08252      .   S
    H1052  C1992     1.08272      .   S
    H910   C866      1.08286      .   S
    H1178  C1134     1.08272      .   S
    H2193  C2149     1.08302      .   S
    H1430  C1386     1.08302      .   S
    H1595  C1575     1.08286      .   S
    C3167  C2162     1.41318      .   S
    C3167  C1147     1.41318      .   S
    C3199  C1399     1.41318      .   S
    C3199  C2005     1.41318      .   S
    C3135  C879      1.41318      .   S
    C3135  C1588     1.41318      .   S
    H1185  C1147     1.08308      .   S
    H1059  C2005     1.08308      .   S
    H917   C879      1.08308      .   S
    H1602  C1588     1.08308      .   S
    H2200  C2162     1.08308      .   S
    H1437  C1399     1.08308      .   S
    C471   C2845     1.41076      .   S
    C471   C470      1.41173      .   S
    C10    C2341     1.41076      .   S
    C10    C9        1.41158      .   S
    C2845  C2844     1.41140      .   S
    C2593  C668      1.41076      .   S
    C2593  C2592     1.41173      .   S
    C2341  C2340     1.41158      .   S
    C668   C667      1.41140      .   S
    C2149  C1134     1.40950      .   S
    C2149  C2151     1.41067      .   S
    C1992  C1386     1.40950      .   S
    C1992  C1994     1.41100      .   S
    C1386  C1388     1.41067      .   S
    C1134  C1136     1.41100      .   S
    C1575  C866      1.40950      .   S
    C1575  C1577     1.41084      .   S
    C866   C868      1.41084      .   S
    C1399  C1398     1.40693      .   S
    C2162  C2161     1.40693      .   S
    C2005  C2004     1.40693      .   S
    C1147  C1146     1.40693      .   S
    C879   C878      1.40693      .   S
    C1588  C1587     1.40693      .   S
    C3218  O92       1.26845      .   S
    C3218  O2297     1.26845      .   S
    C3228  O2801     1.26845      .   S
    C3228  O427      1.26845      .   S
    C3238  O750      1.26845      .   S
    C3238  O2549     1.26845      .   S
    O1161  C1135     1.27399      .   S
    O806   C1576     1.27399      .   S
    O2176  C2150     1.27399      .   S
    O1035  C1993     1.27399      .   S
    O893   C867      1.27399      .   S
    O1413  C1387     1.27399      .   S
    O807   C2843     1.27492      .   S
    O2177  C2339     1.27509      .   S
    O1036  C2591     1.27522      .   S
    O894   C666      1.27492      .   S
    O1414  C8        1.27509      .   S
    O1162  C469      1.27522      .   S
    C3085  C2854     1.40868      .   S
    C3085  C480      1.40922      .   S
    C3029  C19       1.40896      .   S
    C3029  C2350     1.40896      .   S
    C3109  C2602     1.40922      .   S
    C3109  C677      1.40868      .   S
    H260   C480      1.08260      .   S
    H2892  C2854     1.08260      .   S
    H2388  C2350     1.08260      .   S
    H2640  C2602     1.08260      .   S
    H715   C677      1.08260      .   S
    H57    C19       1.08260      .   S
    C19    C20       1.40693      .   S
    C2602  C2603     1.40693      .   S
    C2350  C2351     1.40693      .   S
    C677   C678      1.40693      .   S
    C2854  C2855     1.40693      .   S
    C480   C481      1.40693      .   S
    C470   C469      1.51070      .   S
    C470   C468      1.41100      .   S
    C667   C666      1.51132      .   S
    C667   C665      1.41067      .   S
    C2844  C2843     1.51132      .   S
    C2844  C2842     1.41067      .   S
    C2592  C2591     1.51070      .   S
    C2592  C2590     1.41100      .   S
    C9     C8        1.51096      .   S
    C9     C7        1.41084      .   S
    C2340  C2339     1.51096      .   S
    C2340  C2338     1.41084      .   S
    C867   C868      1.51096  1_655   S
    C867   O693      1.27509      .   S
    C1576  C1577     1.51096  1_565   S
    C1576  O2870     1.27509      .   S
    C1387  C1388     1.51132      .   S
    C1387  O35       1.27492      .   S
    C2150  C2151     1.51132      .   S
    C2150  O2366     1.27492      .   S
    C1135  C1136     1.51070  1_565   S
    C1135  O496      1.27522      .   S
    C1993  C1994     1.51070  1_655   S
    C1993  O2618     1.27522      .   S
    C2843  O2869     1.27399      .   S
    C2339  O2365     1.27399      .   S
    C666   O692      1.27399      .   S
    C2591  O2617     1.27399      .   S
    C8     O34       1.27399      .   S
    C469   O495      1.27399      .   S
    C1994  C1995     1.41173      .   S
    C2151  C2152     1.41140      .   S
    C1388  C1389     1.41140      .   S
    C1577  C1578     1.41158      .   S
    C868   C869      1.41158      .   S
    C1136  C1137     1.41173      .   S
    C1146  H1184     1.08260      .   S
    C1146  C3165     1.40922      .   S
    C1398  H1436     1.08260      .   S
    C1398  C3197     1.40868      .   S
    C878   H916      1.08260      .   S
    C878   C3133     1.40896      .   S
    C1587  H1601     1.08260      .   S
    C1587  C3133     1.40896      .   S
    C2161  H2199     1.08260      .   S
    C2161  C3165     1.40868      .   S
    C2004  H1058     1.08260      .   S
    C2004  C3197     1.40922      .   S
    O1093  C3248     1.26845      .   S
    O2234  C3248     1.26845      .   S
    O1951  C3256     1.26845      .   S
    O1345  C3256     1.26845      .   S
    O1636  C3240     1.26845      .   S
    O825   C3240     1.26845      .   S
    C3133  C3132     1.50353      .   S
    C3197  C3196     1.50353      .   S
    C3165  C3164     1.50353      .   S
    C3240  C3241     1.40622      .   S
    C3248  C3249     1.40622      .   S
    C3256  C3257     1.40622      .   S
    C481   H261      1.08308      .   S
    C481   C3087     1.41318      .   S
    C2603  H2641     1.08308      .   S
    C2603  C3111     1.41318      .   S
    C2855  H2893     1.08308      .   S
    C2855  C3087     1.41318      .   S
    C20    H58       1.08308      .   S
    C20    C3031     1.41318      .   S
    C2351  H2389     1.08308      .   S
    C2351  C3031     1.41318      .   S
    C678   H716      1.08308      .   S
    C678   C3111     1.41318      .   S
    C2590  C665      1.40950      .   S
    C2590  H2634     1.08272      .   S
    C468   C2842     1.40950      .   S
    C468   H512      1.08272      .   S
    C2338  C7        1.40950      .   S
    C2338  H2382     1.08286      .   S
    C7     H51       1.08286      .   S
    C2842  H2886     1.08302      .   S
    C665   H709      1.08302      .   S
    C869   C1578     1.41076      .   S
    C869   H911      1.08252      .   S
    C1578  H1596     1.08252      .   S
    C1137  C2152     1.41076      .   S
    C1137  H1179     1.08252      .   S
    C1389  C1995     1.41076      .   S
    C1389  H1431     1.08252      .   S
    C2152  H2194     1.08252      .   S
    C1995  H1053     1.08252      .   S
    O695   C670      1.27239      .   S
    O37    C12       1.27276      .   S
    O2368  C2343     1.27276      .   S
    O2620  C2595     1.27276      .   S
    O2872  C2847     1.27239      .   S
    O498   C473      1.27276      .   S
    O1172  C486      1.26278      .   S
    O2187  C2356     1.26278      .   S
    O1046  C2608     1.26278      .   S
    O1424  C25       1.26278      .   S
    O904   C683      1.26278      .   S
    O817   C2860     1.26278      .   S
    C3031  C3030     1.42548      .   S
    C3087  C3086     1.42548      .   S
    C3111  C3110     1.42548      .   S
    O2299  C3034     1.26804      .   S
    O94    C3034     1.26804      .   S
    O2551  C3114     1.26848      .   S
    O752   C3114     1.26793      .   S
    O429   C3074     1.26848      .   S
    O2803  C3074     1.26793      .   S
    H713   C675      1.08224      .   S
    H2386  C2348     1.08261      .   S
    H55    C17       1.08261      .   S
    H2638  C2600     1.08264      .   S
    H2890  C2852     1.08224      .   S
    H258   C478      1.08264      .   S
    C2356  O2375     1.27213      .   S
    C2356  C1153     1.48153      .   S
    C25    O44       1.27213      .   S
    C25    C2011     1.48153      .   S
    C683   O702      1.27271      .   S
    C683   C798      1.48129      .   S
    C2860  O2879     1.27271      .   S
    C2860  C885      1.48129      .   S
    C2608  O2627     1.27224      .   S
    C2608  C1405     1.48181      .   S
    C486   O505      1.27224      .   S
    C486   C2168     1.48181      .   S
    C670   O694      1.27495      .   S
    C670   C671      1.50873      .   S
    C2343  O2367     1.27495      .   S
    C2343  C2344     1.50873      .   S
    C473   O497      1.27495      .   S
    C473   C474      1.50873      .   S
    C12    O36       1.27495      .   S
    C12    C13       1.50873      .   S
    C2595  O2619     1.27495      .   S
    C2595  C2596     1.50873      .   S
    C2847  O2871     1.27495      .   S
    C2847  C2848     1.50873      .   S
    H1441  C1407     1.08338      .   S
    H1606  C800      1.08327      .   S
    H2204  C2170     1.08338      .   S
    H921   C887      1.08327      .   S
    H1189  C1155     1.08289      .   S
    H1063  C2013     1.08289      .   S
    C3257  C1316     1.40836      .   S
    C3257  C1922     1.40890      .   S
    C3249  C2205     1.40836      .   S
    C3249  C1064     1.40890      .   S
    C3241  C784      1.40880      .   S
    C3241  C1607     1.40880      .   S
    C3132  O899      1.27177      .   S
    C3132  O812      1.27177      .   S
    C3164  O2182     1.27123      .   S
    C3164  O1167     1.27233      .   S
    C3196  O1419     1.27123      .   S
    C3196  O1041     1.27233      .   S
    H2251  C2205     1.08350      .   S
    H1653  C1607     1.08337      .   S
    H1110  C1064     1.08295      .   S
    H1968  C1922     1.08295      .   S
    H1362  C1316     1.08350      .   S
    H842   C784      1.08337      .   S
    C3034  C3035     1.48126      .   S
    C3074  C3075     1.48055      .   S
    C3114  C3115     1.48055      .   S
    C2205  C1127     1.39567      .   S
    C784   C1568     1.39567      .   S
    C1316  C1985     1.39567      .   S
    C1922  C1379     1.39567      .   S
    C1064  C2142     1.39567      .   S
    C1607  C859      1.39567      .   S
    C1407  C1405     1.40860      .   S
    C1407  C1406     1.39027      .   S
    C2013  C2011     1.40878      .   S
    C2013  C2012     1.39027      .   S
    C887   C885      1.40817      .   S
    C887   C886      1.39027      .   S
    C800   C798      1.40817      .   S
    C800   C799      1.39027      .   S
    C1155  C1153     1.40878      .   S
    C1155  C1154     1.39027      .   S
    C2170  C2168     1.40860      .   S
    C2170  C2169     1.39027      .   S
    C17    C13       1.41033      .   S
    C17    C18       1.40647      .   S
    C675   C671      1.41033      .   S
    C675   C676      1.40647      .   S
    C2348  C2344     1.41033      .   S
    C2348  C2349     1.40647      .   S
    C478   C474      1.41033      .   S
    C478   C479      1.40647      .   S
    C2852  C2848     1.41033      .   S
    C2852  C2853     1.40647      .   S
    C2600  C2596     1.41033      .   S
    C2600  C2601     1.40647      .   S
    C1405  C1403     1.40426      .   S
    C885   C883      1.40426      .   S
    C2168  C2166     1.40426      .   S
    C798   C796      1.40426      .   S
    C1153  C1151     1.40426      .   S
    C2011  C2009     1.40426      .   S
    C2848  C2846     1.41150      .   S
    C13    C11       1.41116      .   S
    C671   C669      1.41150      .   S
    C2344  C2342     1.41116      .   S
    C474   C472      1.41110      .   S
    C2596  C2594     1.41110      .   S
    C3086  O502      1.27301      .   S
    C3086  O2876     1.27301      .   S
    C3030  O2372     1.27301      .   S
    C3030  O41       1.27301      .   S
    C3110  O699      1.27301      .   S
    C3110  O2624     1.27301      .   S
    H920   C886      1.08353      .   S
    H1440  C1406     1.08312      .   S
    H1062  C2012     1.08292      .   S
    H1605  C799      1.08353      .   S
    H1188  C1154     1.08292      .   S
    H2203  C2169     1.08312      .   S
    H2387  C2349     1.08289      .   S
    H2891  C2853     1.08230      .   S
    H259   C479      1.08243      .   S
    H56    C18       1.08289      .   S
    H2639  C2601     1.08243      .   S
    H714   C676      1.08230      .   S
    C1154  C1150     1.40111      .   S
    C2169  C2165     1.40062      .   S
    C799   C795      1.40076      .   S
    C2012  C2008     1.40111      .   S
    C886   C882      1.40076      .   S
    C1406  C1402     1.40062      .   S
    C3115  C723      1.40611      .   S
    C3115  C2522     1.40557      .   S
    C3035  C2270     1.40567      .   S
    C3035  C65       1.40567      .   S
    C3075  C394      1.40557      .   S
    C3075  C2774     1.40611      .   S
    H769   C723      1.08338      .   S
    H2316  C2270     1.08338      .   S
    H446   C394      1.08338      .   S
    H2820  C2774     1.08338      .   S
    H2568  C2522     1.08338      .   S
    H114   C65       1.08338      .   S
    C676   C674      1.41009      .   S
    C2853  C2851     1.41009      .   S
    C2349  C2347     1.41009      .   S
    C2601  C2599     1.41009      .   S
    C479   C477      1.41009      .   S
    C18    C16       1.41009      .   S
    C1403  H1439     1.08314      .   S
    C1403  C1400     1.40238      .   S
    C1151  H1187     1.08334      .   S
    C1151  C1148     1.40238      .   S
    C796   H1604     1.08273      .   S
    C796   C1589     1.40238      .   S
    C2009  H1061     1.08334      .   S
    C2009  C2006     1.40238      .   S
    C883   H919      1.08273      .   S
    C883   C880      1.40238      .   S
    C2166  H2202     1.08314      .   S
    C2166  C2163     1.40238      .   S
    C1379  H1425     1.08295      .   S
    C1379  C3259     1.40890      .   S
    C1127  H1173     1.08350      .   S
    C1127  C3251     1.40836      .   S
    C2142  H2188     1.08295      .   S
    C2142  C3251     1.40890      .   S
    C859   H905      1.08308      .   S
    C859   C3243     1.40848      .   S
    C1985  H1047     1.08350      .   S
    C1985  C3259     1.40836      .   S
    C1568  H818      1.08308      .   S
    C1568  C3243     1.40848      .   S
    C669   H711      1.08234      .   S
    C669   C672      1.41201      .   S
    C2846  H2888     1.08234      .   S
    C2846  C2849     1.41201      .   S
    C2594  H2636     1.08234      .   S
    C2594  C2597     1.41201      .   S
    C11    H53       1.08234      .   S
    C11    C14       1.41201      .   S
    C2342  H2384     1.08234      .   S
    C2342  C2345     1.41201      .   S
    C472   H514      1.08234      .   S
    C472   C475      1.41201      .   S
    C394   C393      1.39584      .   S
    C723   C722      1.39584      .   S
    C2270  C2269     1.39584      .   S
    C2774  C2773     1.39584      .   S
    C2522  C2521     1.39584      .   S
    C65    C64       1.39584      .   S
    C882   C880      1.41016      .   S
    C882   C881      1.47969  1_455   S
    C1402  C1400     1.41016      .   S
    C1402  C1401     1.47969      .   S
    C1150  C1148     1.41016      .   S
    C1150  C1149     1.47969  1_545   S
    C2008  C2006     1.41016      .   S
    C2008  C2007     1.47969  1_455   S
    C2165  C2163     1.41016      .   S
    C2165  C2164     1.47969      .   S
    C795   C1589     1.41016      .   S
    C795   C1590     1.47969  1_545   S
    O1170  C2164     1.27038      .   S
    O815   C881      1.26993      .   S
    O1044  C1401     1.27038      .   S
    O902   C1590     1.26993      .   S
    O1422  C2007     1.27049      .   S
    O2185  C1149     1.27049      .   S
    C1589  H1603     1.08317  1_545   S
    C2163  H2201     1.08330      .   S
    C2006  H1060     1.08281  1_455   S
    C1400  H1438     1.08330      .   S
    C880   H918      1.08317  1_455   S
    C1148  H1186     1.08281  1_545   S
    C3251  C3250     1.40622      .   S
    C3243  C3242     1.40622      .   S
    C3259  C3258     1.40622      .   S
    C2599  C2597     1.41150      .   S
    C2599  C2598     1.50834      .   S
    C2851  C2849     1.41161      .   S
    C2851  C2850     1.50834      .   S
    C2347  C2345     1.41102      .   S
    C2347  C2346     1.50834      .   S
    C16    C14       1.41102      .   S
    C16    C15       1.50834      .   S
    C477   C475      1.41150      .   S
    C477   C476      1.50834      .   S
    C674   C672      1.41161      .   S
    C674   C673      1.50834      .   S
    C2849  H2889     1.08218      .   S
    C14    H54       1.08292      .   S
    C672   H712      1.08218      .   S
    C2345  H2385     1.08292      .   S
    C2597  H2637     1.08299      .   S
    C475   H515      1.08299      .   S
    C881   O901      1.26639      .   S
    C1401  O1421     1.26629      .   S
    C1149  O1169     1.26672      .   S
    C1590  O814      1.26639      .   S
    C2164  O2184     1.26629      .   S
    C2007  O1043     1.26672      .   S
    O802   C3128     1.26899      .   S
    O889   C3128     1.26899      .   S
    O2172  C3160     1.26899      .   S
    O2015  C3192     1.26899      .   S
    O1157  C3160     1.26899      .   S
    O1409  C3192     1.26899      .   S
    C64    H113      1.08306      .   S
    C64    C3033     1.40603      .   S
    C2521  H2567     1.08294      .   S
    C2521  C3113     1.40603      .   S
    C393   H445      1.08294      .   S
    C393   C3073     1.40603      .   S
    C722   H768      1.08349      .   S
    C722   C3113     1.40603      .   S
    C2269  H2315     1.08306      .   S
    C2269  C3033     1.40603      .   S
    C2773  H2819     1.08349      .   S
    C2773  C3073     1.40603      .   S
    C3192  C3193     1.48115      .   S
    C3160  C3161     1.48115      .   S
    C3128  C3129     1.48115      .   S
    O2370  C2346     1.27227      .   S
    O500   C476      1.27273      .   S
    O39    C15       1.27227      .   S
    O2622  C2598     1.27273      .   S
    O2874  C2850     1.27285      .   S
    O697   C673      1.27285      .   S
    C2850  O2873     1.27469      .   S
    C476   O499      1.27469      .   S
    C15    O38       1.27469      .   S
    C2598  O2621     1.27469      .   S
    C673   O696      1.27469      .   S
    C2346  O2369     1.27469      .   S
    C3193  C1986     1.40603      .   S
    C3193  C1380     1.40603      .   S
    C3161  C2143     1.40603      .   S
    C3161  C1128     1.40603      .   S
    C3129  C1569     1.40603      .   S
    C3129  C860      1.40603      .   S
    H1174  C1128     1.08349      .   S
    H1426  C1380     1.08294      .   S
    H1048  C1986     1.08349      .   S
    H1591  C1569     1.08296      .   S
    H2189  C2143     1.08294      .   S
    H906   C860      1.08296      .   S
    C1986  C1987     1.39584      .   S
    C1569  C1570     1.39584      .   S
    C1380  C1381     1.39584      .   S
    C2143  C2144     1.39584      .   S
    C1128  C1129     1.39584      .   S
    C860   C861      1.39584      .   S
    C3242  O888      1.26845      .   S
    C3242  O801      1.26845      .   S
    C3250  O1156     1.26845      .   S
    C3250  O2171     1.26845      .   S
    C3258  O1408     1.26845      .   S
    C3258  O2014     1.26845      .   S
    C3033  C3032     1.48115      .   S
    C3113  C3112     1.48115      .   S
    C3073  C3072     1.48115      .   S
    C1381  H1427     1.08338      .   S
    C1381  C3195     1.40557      .   S
    C2144  H2190     1.08338      .   S
    C2144  C3163     1.40557      .   S
    C1129  H1175     1.08338      .   S
    C1129  C3163     1.40611      .   S
    C1987  H1049     1.08338      .   S
    C1987  C3195     1.40611      .   S
    C1570  H1592     1.08338      .   S
    C1570  C3131     1.40558      .   S
    C861   H907      1.08338      .   S
    C861   C3131     1.40558      .   S
    O107   C3038     1.27301      .   S
    O2309  C3038     1.27301      .   S
    O2813  C3078     1.27301      .   S
    O2561  C3118     1.27301      .   S
    O762   C3118     1.27301      .   S
    O439   C3078     1.27301      .   S
    C3038  C3039     1.42548      .   S
    C3118  C3119     1.42548      .   S
    C3078  C3079     1.42548      .   S
    C3131  C3130     1.48157      .   S
    C3195  C3194     1.48055      .   S
    C3163  C3162     1.48055      .   S
    O1411  C1383     1.27072      .   S
    O804   C1572     1.27101      .   S
    O2174  C2146     1.27072      .   S
    O1159  C1131     1.27083      .   S
    O891   C863      1.27101      .   S
    O1033  C1989     1.27083      .   S
    C3079  C2792     1.41318      .   S
    C3079  C418      1.41318      .   S
    C3039  C2288     1.41318      .   S
    C3039  C83       1.41318      .   S
    C3119  C2540     1.41318      .   S
    C3119  C741      1.41318      .   S
    H2578  C2540     1.08308      .   S
    H456   C418      1.08308      .   S
    H779   C741      1.08308      .   S
    H2326  C2288     1.08308      .   S
    H124   C83       1.08308      .   S
    H2830  C2792     1.08308      .   S
    C3162  O2173     1.26848      .   S
    C3162  O1158     1.26793      .   S
    C3194  O1032     1.26793      .   S
    C3194  O1410     1.26848      .   S
    C3130  O803      1.26797      .   S
    C3130  O890      1.26797      .   S
    C3112  O751      1.26899      .   S
    C3112  O2550     1.26899      .   S
    C3032  O2298     1.26899      .   S
    C3032  O93       1.26899      .   S
    C3072  O2802     1.26899      .   S
    C3072  O428      1.26899      .   S
    C2540  C2539     1.40693      .   S
    C2288  C2287     1.40693      .   S
    C741   C740      1.40693      .   S
    C2792  C2791     1.40693      .   S
    C418   C417      1.40693      .   S
    C83    C82       1.40693      .   S
    O760   C736      1.27273      .   S
    O437   C413      1.27285      .   S
    O2559  C2535     1.27285      .   S
    O2811  C2787     1.27273      .   S
    O2307  C2283     1.27252      .   S
    O105   C78       1.27252      .   S
    C2791  H2829     1.08260      .   S
    C2791  C3077     1.40922      .   S
    C740   H778      1.08260      .   S
    C740   C3117     1.40922      .   S
    C2287  H2325     1.08260      .   S
    C2287  C3037     1.40869      .   S
    C2539  H2577     1.08260      .   S
    C2539  C3117     1.40868      .   S
    C417   H455      1.08260      .   S
    C417   C3077     1.40868      .   S
    C82    H123      1.08260      .   S
    C82    C3037     1.40869      .   S
    H1236  C1190     1.08308      .   S
    H1779  C1733     1.08350      .   S
    H2125  C2079     1.08337      .   S
    H1488  C1442     1.08337      .   S
    H1842  C1796     1.08308      .   S
    H968   C922      1.08350      .   S
    C1989  O1412     1.26792      .   S
    C1989  C1990     1.49198      .   S
    C1131  O2175     1.26792      .   S
    C1131  C1132     1.49198      .   S
    C2146  O1160     1.26837      .   S
    C2146  C2147     1.49130      .   S
    C863   O805      1.26777      .   S
    C863   C864      1.49193      .   S
    C1572  O892      1.26777      .   S
    C1572  C1573     1.49193      .   S
    C1383  O1034     1.26837      .   S
    C1383  C1384     1.49130      .   S
    C3077  C3076     1.50353      .   S
    C3037  C3036     1.50353      .   S
    C3117  C3116     1.50353      .   S
    H1429  C1385     1.08261      .   S
    H1177  C1133     1.08261      .   S
    H909   C865      1.08261      .   S
    H1594  C1574     1.08261      .   S
    H2192  C2148     1.08261      .   S
    H1051  C1991     1.08261      .   S
    C3116  O761      1.27233      .   S
    C3116  O2560     1.27123      .   S
    C3076  O2812     1.27233      .   S
    C3076  O438      1.27123      .   S
    C3036  O106      1.27227      .   S
    C3036  O2308     1.27227      .   S
    O2108  C3254     1.26845      .   S
    O1471  C3260     1.26845      .   S
    O1219  C3252     1.26845      .   S
    O1762  C3246     1.26845      .   S
    O1825  C3262     1.26845      .   S
    O951   C3244     1.26845      .   S
    C1796  C1442     1.39567      .   S
    C1796  C3263     1.40848      .   S
    C1442  C3261     1.40880      .   S
    C2079  C1190     1.39567      .   S
    C2079  C3255     1.40880      .   S
    C1733  C922      1.39567      .   S
    C1733  C3247     1.40836      .   S
    C1190  C3253     1.40848      .   S
    C922   C3245     1.40836      .   S
    C2535  O2558     1.27469      .   S
    C2535  C2536     1.50834      .   S
    C78    O104      1.27469      .   S
    C78    C79       1.50834      .   S
    C413   O436      1.27469      .   S
    C413   C414      1.50834      .   S
    C2283  O2306     1.27469      .   S
    C2283  C2284     1.50834      .   S
    C2787  O2810     1.27469      .   S
    C2787  C2788     1.50834      .   S
    C736   O759      1.27469      .   S
    C736   C737      1.50834      .   S
    H2318  C2274     1.08261      .   S
    H116   C69       1.08261      .   S
    H2822  C2778     1.08261      .   S
    H2570  C2526     1.08261      .   S
    H771   C727      1.08261      .   S
    H448   C199      1.08261      .   S
    C1991  C1990     1.40840      .   S
    C1991  C928      1.40510      .   S
    C865   C864      1.40821      .   S
    C865   C1802     1.40510      .   S
    C1574  C1573     1.40821      .   S
    C1574  C1196     1.40510      .   S
    C1385  C1384     1.40882      .   S
    C1385  C2085     1.40510      .   S
    C2148  C2147     1.40882      .   S
    C2148  C1448     1.40510      .   S
    C1133  C1132     1.40840      .   S
    C1133  C1739     1.40510      .   S
    C1132  C1130     1.40707      .   S
    C1990  C1988     1.40707      .   S
    C1384  C1382     1.40697      .   S
    C2147  C2145     1.40697      .   S
    C1573  C1571     1.40726      .   S
    C864   C862      1.40726      .   S
    H2576  C2538     1.08230      .   S
    H2828  C2790     1.08243      .   S
    H777   C739      1.08243      .   S
    H454   C416      1.08230      .   S
    H2324  C2286     1.08263      .   S
    H122   C81       1.08263      .   S
    O1764  C3146     1.26793      .   S
    O1827  C3210     1.26797      .   S
    O1221  C3170     1.26797      .   S
    O2110  C3178     1.26804      .   S
    O1473  C3202     1.26804      .   S
    O953   C3138     1.26793      .   S
    C3254  C3255     1.40622      .   S
    C3254  O1282     1.26845      .   S
    C3244  C3245     1.40622      .   S
    C3244  O1699     1.26845      .   S
    C3252  C3253     1.40622      .   S
    C3252  O2045     1.26845      .   S
    C3260  C3261     1.40622      .   S
    C3260  O1888     1.26845      .   S
    C3246  C3247     1.40622      .   S
    C3246  O1014     1.26845      .   S
    C3262  C3263     1.40622      .   S
    C3262  O1534     1.26845      .   S
    C3255  C1253     1.40880      .   S
    C3245  C1670     1.40890      .   S
    C3247  C985      1.40890      .   S
    C3263  C1505     1.40848      .   S
    C3261  C1859     1.40880      .   S
    C3253  C2016     1.40848      .   S
    C2778  C727      1.40510      .   S
    C2778  C2777     1.40840      .   S
    C69    C2526     1.40510      .   S
    C69    C68       1.40850      .   S
    C727   C726      1.40840      .   S
    C199   C2274     1.40510      .   S
    C199   C198      1.40882      .   S
    C2526  C2525     1.40882      .   S
    C2274  C2273     1.40850      .   S
    O753   C725      1.27083      .   S
    O2804  C2776     1.27083      .   S
    O95    C67       1.27040      .   S
    O2300  C2272     1.27040      .   S
    O2552  C2524     1.27072      .   S
    O430   C396      1.27072      .   S
    H1490  C1444     1.08338      .   S
    H1781  C1735     1.08338      .   S
    H1238  C1192     1.08338      .   S
    H1844  C1798     1.08338      .   S
    H970   C924      1.08338      .   S
    H2127  C2081     1.08338      .   S
    C2538  C2536     1.41009      .   S
    C2538  C2537     1.40647      .   S
    C81    C79       1.41009      .   S
    C81    C80       1.40647      .   S
    C739   C737      1.41009      .   S
    C739   C738      1.40647      .   S
    C416   C414      1.41009      .   S
    C416   C415      1.40647      .   S
    C2790  C2788     1.41009      .   S
    C2790  C2789     1.40647      .   S
    C2286  C2284     1.41009      .   S
    C2286  C2285     1.40647      .   S
    C79    C77       1.41131      .   S
    C2536  C2534     1.41161      .   S
    C2284  C2282     1.41131      .   S
    C737   C735      1.41150      .   S
    C414   C412      1.41161      .   S
    C2788  C2786     1.41150      .   S
    H1240  C1196     1.08261      .   S
    H1492  C1448     1.08261      .   S
    H2129  C2085     1.08261      .   S
    H1846  C1802     1.08261      .   S
    H972   C928      1.08261      .   S
    H1783  C1739     1.08261      .   S
    C1739  C1738     1.40840      .   S
    C1448  C1447     1.40850      .   S
    C928   C927      1.40840      .   S
    C1196  C1195     1.40821      .   S
    C1802  C1801     1.40821      .   S
    C2085  C2084     1.40850      .   S
    C862   H908      1.08257      .   S
    C862   C1799     1.39819      .   S
    C2145  H2191     1.08257      .   S
    C2145  C1445     1.39819      .   S
    C1571  H1593     1.08257      .   S
    C1571  C1193     1.39819      .   S
    C1988  H1050     1.08257      .   S
    C1988  C925      1.39819      .   S
    C1130  H1176     1.08257      .   S
    C1130  C1736     1.39819      .   S
    C1382  H1428     1.08257      .   S
    C1382  C2082     1.39819      .   S
    C1253  C2016     1.39567      .   S
    C1253  H1299     1.08337      .   S
    C2016  H2062     1.08308      .   S
    C1859  C1505     1.39567      .   S
    C1859  H1905     1.08337      .   S
    C1505  H1551     1.08308      .   S
    C985   C1670     1.39567      .   S
    C985   H1031     1.08295      .   S
    C1670  H1716     1.08295      .   S
    C2524  C2525     1.49130      .   S
    C2524  O754      1.26837      .   S
    C2272  C2273     1.49256      .   S
    C2272  O99       1.26808      .   S
    C725   C726      1.49198      .   S
    C725   O2553     1.26792      .   S
    C396   C198      1.49130      .   S
    C396   O2805     1.26837      .   S
    C67    C68       1.49256      .   S
    C67    O2301     1.26808      .   S
    C2776  C2777     1.49198      .   S
    C2776  O431      1.26792      .   S
    C3138  O1701     1.26848      .   S
    C3138  C3139     1.48055      .   S
    C3178  O1284     1.26804      .   S
    C3178  C3179     1.48126      .   S
    C3170  O2047     1.26797      .   S
    C3170  C3171     1.48157      .   S
    C3146  O1016     1.26848      .   S
    C3146  C3147     1.48055      .   S
    C3202  O1890     1.26804      .   S
    C3202  C3203     1.48126      .   S
    C3210  O1536     1.26797      .   S
    C3210  C3211     1.48157      .   S
    C68    C66       1.40665      .   S
    C198   C395      1.40697      .   S
    C726   C724      1.40707      .   S
    C2777  C2775     1.40707      .   S
    C2525  C2523     1.40697      .   S
    C2273  C2271     1.40665      .   S
    O109   C2290     1.27044      .   S
    O441   C2794     1.27049      .   S
    O2311  C85       1.27044      .   S
    O764   C2542     1.27038      .   S
    O2815  C420      1.27038      .   S
    O2563  C743      1.27049      .   S
    C1735  C3147     1.40611      .   S
    C1735  C1734     1.39584      .   S
    C2081  C3179     1.40567      .   S
    C2081  C2080     1.39584      .   S
    C1192  C3171     1.40558      .   S
    C1192  C1191     1.39584      .   S
    C1798  C3211     1.40558      .   S
    C1798  C1797     1.39584      .   S
    C1444  C3203     1.40567      .   S
    C1444  C1443     1.39584      .   S
    C924   C3139     1.40611      .   S
    C924   C923      1.39584      .   S
    H776   C738      1.08264      .   S
    H2827  C2789     1.08264      .   S
    H121   C80       1.08286      .   S
    H2575  C2537     1.08224      .   S
    H2323  C2285     1.08286      .   S
    H453   C415      1.08224      .   S
    C415   C411      1.41033      .   S
    C2537  C2533     1.41033      .   S
    C80    C76       1.41033      .   S
    C738   C734      1.41033      .   S
    C2285  C2281     1.41033      .   S
    C2789  C2785     1.41033      .   S
    H1780  C1734     1.08349      .   S
    H1237  C1191     1.08296      .   S
    H2126  C2080     1.08306      .   S
    H969   C923      1.08349      .   S
    H1489  C1443     1.08306      .   S
    H1843  C1797     1.08296      .   S
    C2786  H2826     1.08299      .   S
    C2786  C2783     1.41201      .   S
    C735   H775      1.08299      .   S
    C735   C732      1.41201      .   S
    C2282  H2322     1.08341      .   S
    C2282  C2279     1.41201      .   S
    C412   H452      1.08218      .   S
    C412   C409      1.41201      .   S
    C77    H120      1.08341      .   S
    C77    C74       1.41201      .   S
    C2534  H2574     1.08218      .   S
    C2534  C2531     1.41201      .   S
    C2084  C2082     1.40665      .   S
    C2084  C2083     1.49256      .   S
    C1738  C1736     1.40707      .   S
    C1738  C1737     1.49198      .   S
    C1195  C1193     1.40726      .   S
    C1195  C1194     1.49193      .   S
    C927   C925      1.40707      .   S
    C927   C926      1.49198      .   S
    C1801  C1799     1.40726      .   S
    C1801  C1800     1.49193      .   S
    C1447  C1445     1.40665      .   S
    C1447  C1446     1.49256      .   S
    H782   C748      1.08292      .   S
    H2833  C2799     1.08292      .   S
    H2581  C2547     1.08312      .   S
    H2329  C2295     1.08312      .   S
    H131   C90       1.08312      .   S
    H459   C425      1.08312      .   S
    C1445  H1491     1.08257      .   S
    C1799  H1845     1.08257      .   S
    C2082  H2128     1.08257      .   S
    C1736  H1782     1.08257      .   S
    C1193  H1239     1.08257      .   S
    C925   H971      1.08257      .   S
    C3171  C2018     1.40558      .   S
    C3179  C1255     1.40567      .   S
    C3211  C1507     1.40558      .   S
    C3203  C1861     1.40567      .   S
    C3139  C1672     1.40557      .   S
    C3147  C987      1.40557      .   S
    C1443  C3201     1.40603      .   S
    C1734  C3145     1.40603      .   S
    C1191  C3169     1.40603      .   S
    C923   C3137     1.40603      .   S
    C2080  C3177     1.40603      .   S
    C1797  C3209     1.40603      .   S
    C395   C2271     1.39819      .   S
    C395   H447      1.08257      .   S
    C724   C2775     1.39819      .   S
    C724   H770      1.08257      .   S
    C2271  H2317     1.08257      .   S
    C66    C2523     1.39819      .   S
    C66    H115      1.08257      .   S
    C2775  H2821     1.08257      .   S
    C2523  H2569     1.08257      .   S
    C420   O440      1.26629      .   S
    C420   C421      1.47969      .   S
    C2290  O2310     1.26682      .   S
    C2290  C2291     1.47969      .   S
    C2542  O2562     1.26629      .   S
    C2542  C2543     1.47969      .   S
    C743   O763      1.26672      .   S
    C743   C744      1.47969      .   S
    C85    O108      1.26682      .   S
    C85    C86       1.47969      .   S
    C2794  O2814     1.26672      .   S
    C2794  C2795     1.47969      .   S
    C2799  C2795     1.40111      .   S
    C2799  C2800     1.39027      .   S
    C2295  C2291     1.40113      .   S
    C2295  C2296     1.39027      .   S
    C90    C86       1.40113      .   S
    C90    C91       1.39027      .   S
    C2547  C2543     1.40062      .   S
    C2547  C2548     1.39027      .   S
    C425   C421      1.40062      .   S
    C425   C426      1.39027      .   S
    C748   C744      1.40111      .   S
    C748   C749      1.39027      .   S
    C411   C409      1.41150      .   S
    C411   C410      1.50873      .   S
    C2785  C2783     1.41110      .   S
    C2785  C2784     1.50873      .   S
    C734   C732      1.41110      .   S
    C734   C733      1.50873      .   S
    C2281  C2279     1.41088      .   S
    C2281  C2280     1.50873      .   S
    C2533  C2531     1.41150      .   S
    C2533  C2532     1.50873      .   S
    C76    C74       1.41088      .   S
    C76    C75       1.50873      .   S
    C2279  H2321     1.08234      .   S
    C74    H119      1.08234      .   S
    C2783  H2825     1.08234      .   S
    C732   H774      1.08234      .   S
    C409   H451      1.08234      .   S
    C2531  H2573     1.08234      .   S
    O954   C926      1.27083      .   S
    O1765  C1737     1.27083      .   S
    O1828  C1800     1.27101      .   S
    O2111  C2083     1.27040      .   S
    O1222  C1194     1.27101      .   S
    O1474  C1446     1.27040      .   S
    C2083  O1286     1.26808      .   S
    C1800  O1538     1.26777      .   S
    C1194  O2049     1.26777      .   S
    C1737  O1018     1.26792      .   S
    C926   O1703     1.26792      .   S
    C1446  O1892     1.26808      .   S
    H783   C749      1.08289      .   S
    H460   C426      1.08338      .   S
    H2582  C2548     1.08338      .   S
    H132   C91       1.08287      .   S
    H2834  C2800     1.08289      .   S
    H2330  C2296     1.08287      .   S
    C744   C742      1.41016      .   S
    C421   C419      1.41016      .   S
    C2795  C2793     1.41016      .   S
    C86    C84       1.41016      .   S
    C2291  C2289     1.41016      .   S
    C2543  C2541     1.41016      .   S
    C987   H517      1.08338      .   S
    C987   C986      1.39584      .   S
    C1255  H1301     1.08338      .   S
    C1255  C1254     1.39584      .   S
    C1507  H1553     1.08338      .   S
    C1507  C1506     1.39584      .   S
    C1861  H1907     1.08338      .   S
    C1861  C1860     1.39584      .   S
    C2018  H2064     1.08338      .   S
    C2018  C2017     1.39584      .   S
    C1672  H1718     1.08338      .   S
    C1672  C1671     1.39584      .   S
    C3137  C1671     1.40603      .   S
    C3137  C3136     1.48115      .   S
    C3145  C986      1.40603      .   S
    C3145  C3144     1.48115      .   S
    C3169  C2017     1.40603      .   S
    C3169  C3168     1.48115      .   S
    C3177  C1254     1.40603      .   S
    C3177  C3176     1.48115      .   S
    C3201  C1860     1.40603      .   S
    C3201  C3200     1.48115      .   S
    C3209  C1506     1.40603      .   S
    C3209  C3208     1.48115      .   S
    C91    C89       1.40857      .   S
    C426   C424      1.40860      .   S
    C749   C747      1.40878      .   S
    C2548  C2546     1.40860      .   S
    C2800  C2798     1.40878      .   S
    C2296  C2294     1.40857      .   S
    O1472  C3200     1.26899      .   S
    O952   C3136     1.26899      .   S
    O1763  C3144     1.26899      .   S
    O1826  C3208     1.26899      .   S
    O1220  C3168     1.26899      .   S
    O2109  C3176     1.26899      .   S
    H1314  C1280     1.08312      .   S
    H1731  C1697     1.08312      .   S
    H1920  C1886     1.08312      .   S
    H530   C1012     1.08312      .   S
    H1566  C1532     1.08353      .   S
    H2077  C2043     1.08353      .   S
    O2305  C2280     1.27302      .   S
    O103   C75       1.27302      .   S
    O2557  C2532     1.27239      .   S
    O435   C410      1.27239      .   S
    O758   C733      1.27276      .   S
    O2809  C2784     1.27276      .   S
    H1567  C1533     1.08327      .   S
    H531   C1013     1.08338      .   S
    H1921  C1887     1.08287      .   S
    H1315  C1281     1.08287      .   S
    H2078  C2044     1.08327      .   S
    H1732  C1698     1.08338      .   S
    C410   O434      1.27495      .   S
    C733   O757      1.27495      .   S
    C2532  O2556     1.27495      .   S
    C2280  O2304     1.27495      .   S
    C75    O102      1.27495      .   S
    C2784  O2808     1.27495      .   S
    C1506  H1552     1.08296      .   S
    C1671  H1717     1.08294      .   S
    C1860  H1906     1.08306      .   S
    C1254  H1300     1.08306      .   S
    C986   H516      1.08294      .   S
    C2017  H2063     1.08296      .   S
    C3144  O1015     1.26899      .   S
    C3168  O2046     1.26899      .   S
    C3136  O1700     1.26899      .   S
    C3176  O1283     1.26899      .   S
    C3200  O1889     1.26899      .   S
    C3208  O1535     1.26899      .   S
    C1697  C1698     1.39027      .   S
    C1697  C1693     1.40062      .   S
    C1532  C1533     1.39027      .   S
    C1532  C1528     1.40076      .   S
    C1886  C1887     1.39027      .   S
    C1886  C1882     1.40113      .   S
    C2043  C2044     1.39027      .   S
    C2043  C2039     1.40076      .   S
    C1012  C1013     1.39027      .   S
    C1012  C1008     1.40062      .   S
    C1280  C1281     1.39027      .   S
    C1280  C1276     1.40113      .   S
    O965   C1692     1.27038      .   S
    O1485  C1881     1.27044      .   S
    O1233  C2038     1.26993      .   S
    O1776  C1007     1.27038      .   S
    O2122  C1275     1.27044      .   S
    O1839  C1527     1.26993      .   S
    C2044  C2042     1.40817      .   S
    C1533  C1531     1.40817      .   S
    C1698  C1696     1.40860      .   S
    C1013  C1011     1.40860      .   S
    C1887  C1885     1.40857      .   S
    C1281  C1279     1.40857      .   S
    C742   H780      1.08281      .   S
    C742   C745      1.40238      .   S
    C84    H125      1.08279      .   S
    C84    C87       1.40238      .   S
    C2793  H2831     1.08281      .   S
    C2793  C2796     1.40238      .   S
    C419   H457      1.08330      .   S
    C419   C422      1.40238      .   S
    C2541  H2579     1.08330      .   S
    C2541  C2544     1.40238      .   S
    C2289  H2327     1.08279      .   S
    C2289  C2292     1.40238      .   S
    C2798  C2796     1.40426      .   S
    C2798  C1215     1.48153      .   S
    C747   C745      1.40426      .   S
    C747   C1821     1.48153      .   S
    C424   C422      1.40426      .   S
    C424   C1758     1.48181      .   S
    C2294  C2292     1.40426      .   S
    C2294  C1467     1.48126      .   S
    C2546  C2544     1.40426      .   S
    C2546  C947      1.48181      .   S
    C89    C87       1.40426      .   S
    C89    C2104     1.48126      .   S
    O2817  C1758     1.26278      .   S
    O2565  C1821     1.26278      .   S
    O2313  C2104     1.26278      .   S
    O111   C1467     1.26278      .   S
    O766   C947      1.26278      .   S
    O443   C1215     1.26278      .   S
    C1527  C1528     1.47969  1_565   S
    C1527  O1547     1.26639      .   S
    C1007  C1008     1.47969      .   S
    C1007  O1027     1.26629      .   S
    C2038  C2039     1.47969  1_655   S
    C2038  O2058     1.26639      .   S
    C1881  C1882     1.47969  1_565   S
    C1881  O1901     1.26682      .   S
    C1275  C1276     1.47969  1_655   S
    C1275  O1295     1.26682      .   S
    C1692  C1693     1.47969      .   S
    C1692  O1712     1.26629      .   S
    H1853  C1815     1.08260      .   S
    H1247  C1209     1.08260      .   S
    H2136  C2098     1.08260      .   S
    H1499  C1461     1.08260      .   S
    H979   C941      1.08260      .   S
    H1790  C1752     1.08260      .   S
    C1276  C1274     1.41016      .   S
    C1693  C1691     1.41016      .   S
    C2039  C2037     1.41016      .   S
    C1528  C1526     1.41016      .   S
    C1882  C1880     1.41016      .   S
    C1008  C1006     1.41016      .   S
    O1836  C3212     1.27177      .   S
    O2119  C3180     1.27227      .   S
    O1230  C3172     1.27177      .   S
    O1773  C3148     1.27233      .   S
    O962   C3140     1.27233      .   S
    O1482  C3204     1.27227      .   S
    O1841  C2545     1.26278      .   S
    O1235  C423      1.26278      .   S
    O967   C746      1.26278      .   S
    O1778  C2797     1.26278      .   S
    O2124  C2293     1.26278      .   S
    O1487  C88       1.26278      .   S
    C87    H126      1.08313      .   S
    C745   H781      1.08334      .   S
    C422   H458      1.08314      .   S
    C2292  H2328     1.08313      .   S
    C2544  H2580     1.08314      .   S
    C2796  H2832     1.08334      .   S
    C1279  C2293     1.48126      .   S
    C1279  C1277     1.40426      .   S
    C1011  C2797     1.48181      .   S
    C1011  C1009     1.40426      .   S
    C1696  C746      1.48181      .   S
    C1696  C1694     1.40426      .   S
    C2042  C423      1.48129      .   S
    C2042  C2040     1.40426      .   S
    C1885  C88       1.48126      .   S
    C1885  C1883     1.40426      .   S
    C1531  C2545     1.48129      .   S
    C1531  C1529     1.40426      .   S
    C1821  O1840     1.27213      .   S
    C947   O966      1.27224      .   S
    C2104  O2123     1.27227      .   S
    C1467  O1486     1.27227      .   S
    C1215  O1234     1.27213      .   S
    C1758  O1777     1.27224      .   S
    H977   C939      1.08264      .   S
    H2134  C2096     1.08286      .   S
    H1851  C1813     1.08261      .   S
    H1245  C1207     1.08261      .   S
    H1497  C1459     1.08286      .   S
    H1788  C1750     1.08264      .   S
    C2293  O2312     1.27227      .   S
    C746   O765      1.27224      .   S
    C88    O110      1.27227      .   S
    C2797  O2816     1.27224      .   S
    C2545  O2564     1.27271      .   S
    C423   O442      1.27271      .   S
    H1500  C1462     1.08308      .   S
    H980   C942      1.08308      .   S
    H1791  C1753     1.08308      .   S
    H2137  C2099     1.08308      .   S
    H1248  C1210     1.08308      .   S
    H1854  C1816     1.08308      .   S
    C1461  C1462     1.40693      .   S
    C1461  C3205     1.40869      .   S
    C2098  C2099     1.40693      .   S
    C2098  C3181     1.40869      .   S
    C1209  C1210     1.40693      .   S
    C1209  C3173     1.40896      .   S
    C1815  C1816     1.40693      .   S
    C1815  C3213     1.40896      .   S
    C941   C942      1.40693      .   S
    C941   C3141     1.40922      .   S
    C1752  C1753     1.40693      .   S
    C1752  C3149     1.40922      .   S
    C2037  C2040     1.40238      .   S
    C2037  H2075     1.08317  1_455   S
    C1526  C1529     1.40238      .   S
    C1526  H1564     1.08317  1_545   S
    C1691  C1694     1.40238      .   S
    C1691  H1729     1.08330      .   S
    C1274  C1277     1.40238      .   S
    C1274  H1312     1.08279  1_455   S
    C1006  C1009     1.40238      .   S
    C1006  H528      1.08330      .   S
    C1880  C1883     1.40238      .   S
    C1880  H1918     1.08279  1_545   S
    H1719  C1673     1.08257      .   S
    H1302  C1256     1.08257      .   S
    H1908  C1862     1.08257      .   S
    H518   C988      1.08257      .   S
    H1554  C1508     1.08257      .   S
    H2065  C2019     1.08257      .   S
    O1227  C1202     1.27276      .   S
    O2116  C2091     1.27302      .   S
    O1833  C1808     1.27276      .   S
    O1479  C1454     1.27302      .   S
    O959   C934      1.27276      .   S
    O1770  C1745     1.27276      .   S
    O1766  C989      1.26837      .   S
    O1829  C1509     1.26777      .   S
    O2112  C1257     1.26808      .   S
    O1223  C2020     1.26777      .   S
    O955   C1674     1.26837      .   S
    O1475  C1863     1.26808      .   S
    C1883  H1919     1.08313      .   S
    C2040  H2076     1.08273      .   S
    C1529  H1565     1.08273      .   S
    C1694  H1730     1.08314      .   S
    C1009  H529      1.08314      .   S
    C1277  H1313     1.08313      .   S
    H1852  C1814     1.08289      .   S
    H978   C940      1.08243      .   S
    H2135  C2097     1.08263      .   S
    H1498  C1460     1.08263      .   S
    H1789  C1751     1.08243      .   S
    H1246  C1208     1.08289      .   S
    C3212  C3213     1.50353      .   S
    C3212  O1545     1.27177      .   S
    C3204  C3205     1.50353      .   S
    C3204  O1899     1.27227      .   S
    C3180  C3181     1.50353      .   S
    C3180  O1293     1.27227      .   S
    C3140  C3141     1.50353      .   S
    C3140  O1710     1.27123      .   S
    C3172  C3173     1.50353      .   S
    C3172  O2056     1.27177      .   S
    C3148  C3149     1.50353      .   S
    C3148  O1025     1.27123      .   S
    C1673  C1256     1.39819      .   S
    C1673  C1675     1.40697      .   S
    C1508  C2019     1.39819      .   S
    C1508  C1510     1.40726      .   S
    C988   C1862     1.39819      .   S
    C988   C990      1.40697      .   S
    C2019  C2021     1.40726      .   S
    C1256  C1258     1.40665      .   S
    C1862  C1864     1.40665      .   S
    C1753  C3151     1.41318      .   S
    C1816  C3215     1.41318      .   S
    C1210  C3175     1.41318      .   S
    C2099  C3183     1.41318      .   S
    C1462  C3207     1.41318      .   S
    C942   C3143     1.41318      .   S
    C989   C990      1.49130      .   S
    C989   O1017     1.27072      .   S
    C2020  C2021     1.49193      .   S
    C2020  O2048     1.27101      .   S
    C1674  C1675     1.49130      .   S
    C1674  O1702     1.27072      .   S
    C1863  C1864     1.49256      .   S
    C1863  O1891     1.27040      .   S
    C1509  C1510     1.49193      .   S
    C1509  O1537     1.27101      .   S
    C1257  C1258     1.49256      .   S
    C1257  O1285     1.27040      .   S
    C1864  C1865     1.40850      .   S
    C1675  C1676     1.40882      .   S
    C1510  C1511     1.40821      .   S
    C990   C991      1.40882      .   S
    C2021  C2022     1.40821      .   S
    C1258  C1259     1.40850      .   S
    C1750  C1751     1.40647      .   S
    C1750  C1746     1.41033      .   S
    C1459  C1460     1.40647      .   S
    C1459  C1455     1.41033      .   S
    C939   C940      1.40647      .   S
    C939   C935      1.41033      .   S
    C1207  C1208     1.40647      .   S
    C1207  C1203     1.41033      .   S
    C2096  C2097     1.40647      .   S
    C2096  C2092     1.41033      .   S
    C1813  C1814     1.40647      .   S
    C1813  C1809     1.41033      .   S
    C3173  C2035     1.40896      .   S
    C3181  C1272     1.40869      .   S
    C3205  C1878     1.40869      .   S
    C3213  C1524     1.40896      .   S
    C3149  C1004     1.40868      .   S
    C3141  C1689     1.40868      .   S
    C1259  C1676     1.40510      .   S
    C1259  H1303     1.08261      .   S
    C1676  H1720     1.08261      .   S
    C1511  C2022     1.40510      .   S
    C1511  H1555     1.08261      .   S
    C2022  H2066     1.08261      .   S
    C1865  C991      1.40510      .   S
    C1865  H1909     1.08261      .   S
    C991   H519      1.08261      .   S
    C1208  C1206     1.41009      .   S
    C1460  C1458     1.41009      .   S
    C1814  C1812     1.41009      .   S
    C2097  C2095     1.41009      .   S
    C1751  C1749     1.41009      .   S
    C940   C938      1.41009      .   S
    C1808  C1809     1.50873      .   S
    C1808  O1832     1.27495      .   S
    C1202  C1203     1.50873      .   S
    C1202  O1226     1.27495      .   S
    C1745  C1746     1.50873      .   S
    C1745  O1769     1.27495      .   S
    C934   C935      1.50873      .   S
    C934   O958      1.27495      .   S
    C1454  C1455     1.50873      .   S
    C1454  O1478     1.27495      .   S
    C2091  C2092     1.50873      .   S
    C2091  O2115     1.27495      .   S
    H117   C70       1.08332      .   S
    H2571  C2527     1.08302      .   S
    H2823  C2779     1.08272      .   S
    H2319  C2275     1.08332      .   S
    H449   C200      1.08302      .   S
    H772   C728      1.08272      .   S
    O755   C729      1.27399      .   S
    O2302  C2276     1.27399      .   S
    O432   C201      1.27399      .   S
    O100   C71       1.27399      .   S
    O2806  C2780     1.27399      .   S
    O2554  C2528     1.27399      .   S
    O1483  C3206     1.27301      .   S
    O1837  C3214     1.27301      .   S
    O1774  C3150     1.27301      .   S
    O963   C3142     1.27301      .   S
    O1231  C3174     1.27301      .   S
    O2120  C3182     1.27301      .   S
    C728   C2527     1.40950      .   S
    C728   C730      1.41100      .   S
    C2275  C70       1.40950      .   S
    C2275  C2277     1.41127      .   S
    C2527  C2529     1.41067      .   S
    C200   C2779     1.40950      .   S
    C200   C202      1.41067      .   S
    C2779  C2781     1.41100      .   S
    C70    C72       1.41127      .   S
    C1746  C1744     1.41110      .   S
    C1203  C1201     1.41116      .   S
    C1455  C1453     1.41088      .   S
    C935   C933      1.41110      .   S
    C1809  C1807     1.41116      .   S
    C2092  C2090     1.41088      .   S
    O1775  C1755     1.26672      .   S
    O1838  C1818     1.26639      .   S
    O964   C944      1.26672      .   S
    O1484  C1464     1.26682      .   S
    O2121  C2101     1.26682      .   S
    O1232  C1212     1.26639      .   S
    C3151  C3150     1.42548      .   S
    C3151  C1005     1.41318      .   S
    C3183  C3182     1.42548      .   S
    C3183  C1273     1.41318      .   S
    C3143  C3142     1.42548      .   S
    C3143  C1690     1.41318      .   S
    C3175  C3174     1.42548      .   S
    C3175  C2036     1.41318      .   S
    C3207  C3206     1.42548      .   S
    C3207  C1879     1.41318      .   S
    C3215  C3214     1.42548      .   S
    C3215  C1525     1.41318      .   S
    O1229  C1205     1.27227      .   S
    O1772  C1748     1.27273      .   S
    O2118  C2094     1.27252      .   S
    O1481  C1457     1.27252      .   S
    O961   C937      1.27273      .   S
    O1835  C1811     1.27227      .   S
    C201   C202      1.51132      .   S
    C201   O1225     1.27492      .   S
    C71    C72       1.51099      .   S
    C71    O1477     1.27552      .   S
    C2780  C2781     1.51070      .   S
    C2780  O1768     1.27522      .   S
    C2528  C2529     1.51132      .   S
    C2528  O1831     1.27492      .   S
    C729   C730      1.51070      .   S
    C729   O957      1.27522      .   S
    C2276  C2277     1.51099      .   S
    C2276  O2114     1.27552      .   S
    C2781  C2782     1.41173      .   S
    C2277  C2278     1.41113      .   S
    C730   C731      1.41173      .   S
    C202   C203      1.41140      .   S
    C2529  C2530     1.41140      .   S
    C72    C73       1.41113      .   S
    C1689  C1690     1.40693      .   S
    C1689  H1727     1.08260      .   S
    C2035  C2036     1.40693      .   S
    C2035  H2073     1.08260      .   S
    C1524  C1525     1.40693      .   S
    C1524  H1562     1.08260      .   S
    C1272  C1273     1.40693      .   S
    C1272  H1310     1.08260      .   S
    C1004  C1005     1.40693      .   S
    C1004  H526      1.08260      .   S
    C1878  C1879     1.40693      .   S
    C1878  H1916     1.08260      .   S
    C3214  O1546     1.27301      .   S
    C3182  O1294     1.27301      .   S
    C3142  O1711     1.27301      .   S
    C3174  O2057     1.27301      .   S
    C3206  O1900     1.27301      .   S
    C3150  O1026     1.27301      .   S
    C1458  C1457     1.50834      .   S
    C1458  C1456     1.41131      .   S
    C938   C937      1.50834      .   S
    C938   C936      1.41150      .   S
    C1206  C1205     1.50834      .   S
    C1206  C1204     1.41102      .   S
    C1812  C1811     1.50834      .   S
    C1812  C1810     1.41102      .   S
    C1749  C1748     1.50834      .   S
    C1749  C1747     1.41150      .   S
    C2095  C2094     1.50834      .   S
    C2095  C2093     1.41131      .   S
    O2059  C1212     1.26993      .   S
    O1548  C1818     1.26993      .   S
    O1028  C1755     1.27049      .   S
    O1296  C2101     1.27044      .   S
    O1902  C1464     1.27044      .   S
    O1713  C944      1.27049      .   S
    C2530  C731      1.41076      .   S
    C2530  H2572     1.08252      .   S
    C73    C2278     1.41076      .   S
    C73    H118      1.08252      .   S
    C731   H773      1.08252      .   S
    C203   C2782     1.41076      .   S
    C203   H450      1.08252      .   S
    C2782  H2824     1.08252      .   S
    C2278  H2320     1.08252      .   S
    C1525  H1563     1.08308      .   S
    C1690  H1728     1.08308      .   S
    C1273  H1311     1.08308      .   S
    C2036  H2074     1.08308      .   S
    C1005  H527      1.08308      .   S
    C1879  H1917     1.08308      .   S
    O433   C1198     1.27509      .   S
    O2303  C2087     1.27552      .   S
    O756   C930      1.27522      .   S
    O2555  C1804     1.27509      .   S
    O2807  C1741     1.27522      .   S
    O101   C1450     1.27552      .   S
    C1807  C1810     1.41201      .   S
    C1807  H1849     1.08234      .   S
    C2090  C2093     1.41201      .   S
    C2090  H2132     1.08234      .   S
    C933   C936      1.41201      .   S
    C933   H975      1.08234      .   S
    C1453  C1456     1.41201      .   S
    C1453  H1495     1.08234      .   S
    C1744  C1747     1.41201      .   S
    C1744  H1786     1.08234      .   S
    C1201  C1204     1.41201      .   S
    C1201  H1243     1.08234      .   S
    O2113  C2087     1.27399      .   S
    O956   C930      1.27399      .   S
    O1767  C1741     1.27399      .   S
    O1476  C1450     1.27399      .   S
    O1830  C1804     1.27399      .   S
    O1224  C1198     1.27399      .   S
