# CIF file generated by openbabel 2.4.90, see http://openbabel.sf.net
data_I
_chemical_name_common ''
_cell_length_a 62.8399
_cell_length_b 62.8399
_cell_length_c 62.8399
_cell_angle_alpha 60
_cell_angle_beta 60
_cell_angle_gamma 60
_space_group_name_H-M_alt 'P 1'
_space_group_name_Hall 'P 1'
loop_
    _symmetry_equiv_pos_as_xyz
    x,y,z
loop_
    _atom_site_label
    _atom_site_type_symbol
    _atom_site_fract_x
    _atom_site_fract_y
    _atom_site_fract_z
    _atom_site_occupancy
    Cr0     Cr   0.30656   0.35963   0.53034   1.000
    Cr1     Cr   0.11423   0.28384   0.65770   1.000
    Cr2     Cr   0.28384   0.11423   0.94423   1.000
    Cr3     Cr   0.35963   0.30656   0.80348   1.000
    Cr4     Cr   0.65770   0.94423   0.11423   1.000
    Cr5     Cr   0.53034   0.80348   0.30656   1.000
    Cr6     Cr   0.94423   0.65770   0.28384   1.000
    Cr7     Cr   0.80348   0.53034   0.35963   1.000
    Cr8     Cr   0.65770   0.11423   0.28384   1.000
    Cr9     Cr   0.53034   0.30656   0.35963   1.000
    Cr10    Cr   0.94423   0.28384   0.11423   1.000
    Cr11    Cr   0.80348   0.35963   0.30656   1.000
    Cr12    Cr   0.11423   0.65770   0.94423   1.000
    Cr13    Cr   0.30656   0.53034   0.80348   1.000
    Cr14    Cr   0.28384   0.94423   0.65770   1.000
    Cr15    Cr   0.35963   0.80348   0.53034   1.000
    Cr16    Cr   0.28384   0.65770   0.11423   1.000
    Cr17    Cr   0.35963   0.53034   0.30656   1.000
    Cr18    Cr   0.11423   0.94423   0.28384   1.000
    Cr19    Cr   0.30656   0.80348   0.35963   1.000
    Cr20    Cr   0.94423   0.11423   0.65770   1.000
    Cr21    Cr   0.80348   0.30656   0.53034   1.000
    Cr22    Cr   0.65770   0.28384   0.94423   1.000
    Cr23    Cr   0.53034   0.35963   0.80348   1.000
    Cr24    Cr   0.13577   0.96616   0.30577   1.000
    Cr25    Cr   0.94344   0.89037   0.44652   1.000
    Cr26    Cr   0.96616   0.13577   0.59230   1.000
    Cr27    Cr   0.89037   0.94344   0.71966   1.000
    Cr28    Cr   0.59230   0.30577   0.96616   1.000
    Cr29    Cr   0.71966   0.44652   0.89037   1.000
    Cr30    Cr   0.30577   0.59230   0.13577   1.000
    Cr31    Cr   0.44652   0.71966   0.94344   1.000
    Cr32    Cr   0.59230   0.13577   0.30577   1.000
    Cr33    Cr   0.71966   0.94344   0.44652   1.000
    Cr34    Cr   0.30577   0.96616   0.59230   1.000
    Cr35    Cr   0.44652   0.89037   0.71966   1.000
    Cr36    Cr   0.13577   0.59230   0.96616   1.000
    Cr37    Cr   0.94344   0.71966   0.89037   1.000
    Cr38    Cr   0.96616   0.30577   0.13577   1.000
    Cr39    Cr   0.89037   0.44652   0.94344   1.000
    Cr40    Cr   0.96616   0.59230   0.30577   1.000
    Cr41    Cr   0.89037   0.71966   0.44652   1.000
    Cr42    Cr   0.13577   0.30577   0.59230   1.000
    Cr43    Cr   0.94344   0.44652   0.71966   1.000
    Cr44    Cr   0.30577   0.13577   0.96616   1.000
    Cr45    Cr   0.44652   0.94344   0.89037   1.000
    Cr46    Cr   0.59230   0.96616   0.13577   1.000
    Cr47    Cr   0.71966   0.89037   0.94344   1.000
    Cr48    Cr   0.13577   0.96616   0.59230   1.000
    Cr49    Cr   0.94344   0.89037   0.71966   1.000
    O50     O    0.12500   0.93992   0.62500   1.000
    Cr51    Cr   0.90935   0.12500   0.34065   1.000
    O52     O    0.93992   0.12500   0.31008   1.000
    Cr53    Cr   0.62500   0.34065   0.12500   1.000
    O54     O    0.62500   0.31008   0.12500   1.000
    Cr55    Cr   0.34065   0.62500   0.90935   1.000
    O56     O    0.31008   0.62500   0.93992   1.000
    Cr57    Cr   0.62500   0.12500   0.90935   1.000
    O58     O    0.62500   0.12500   0.93992   1.000
    Cr59    Cr   0.34065   0.90935   0.12500   1.000
    O60     O    0.31008   0.93992   0.12500   1.000
    Cr61    Cr   0.12500   0.62500   0.34065   1.000
    O62     O    0.12500   0.62500   0.31008   1.000
    Cr63    Cr   0.90935   0.34065   0.62500   1.000
    O64     O    0.93992   0.31008   0.62500   1.000
    Cr65    Cr   0.90935   0.62500   0.12500   1.000
    O66     O    0.93992   0.62500   0.12500   1.000
    Cr67    Cr   0.12500   0.34065   0.90935   1.000
    O68     O    0.12500   0.31008   0.93992   1.000
    Cr69    Cr   0.34065   0.12500   0.62500   1.000
    O70     O    0.31008   0.12500   0.62500   1.000
    Cr71    Cr   0.62500   0.90935   0.34065   1.000
    O72     O    0.62500   0.93992   0.31008   1.000
    Cr73    Cr   0.22983   0.22983   0.77017   1.000
    O74     O    0.25157   0.25157   0.74843   1.000
    Cr75    Cr   0.77017   0.77017   0.22983   1.000
    O76     O    0.74843   0.74843   0.25157   1.000
    Cr77    Cr   0.77017   0.22983   0.22983   1.000
    O78     O    0.74843   0.25157   0.25157   1.000
    Cr79    Cr   0.22983   0.77017   0.77017   1.000
    O80     O    0.25157   0.74843   0.74843   1.000
    Cr81    Cr   0.22983   0.77017   0.22983   1.000
    O82     O    0.25157   0.74843   0.25157   1.000
    Cr83    Cr   0.77017   0.22983   0.77017   1.000
    O84     O    0.74843   0.25157   0.74843   1.000
    Cr85    Cr   0.02017   0.02017   0.47983   1.000
    O86     O    0.99843   0.99843   0.50157   1.000
    Cr87    Cr   0.47983   0.47983   0.02017   1.000
    O88     O    0.50157   0.50157   0.99843   1.000
    Cr89    Cr   0.47983   0.02017   0.47983   1.000
    O90     O    0.50157   0.99843   0.50157   1.000
    Cr91    Cr   0.02017   0.47983   0.02017   1.000
    O92     O    0.99843   0.50157   0.99843   1.000
    Cr93    Cr   0.02017   0.47983   0.47983   1.000
    O94     O    0.99843   0.50157   0.50157   1.000
    Cr95    Cr   0.47983   0.02017   0.02017   1.000
    O96     O    0.50157   0.99843   0.99843   1.000
    Cr97    Cr   0.23592   0.28896   0.73756   1.000
    Cr98    Cr   0.28896   0.23592   0.73756   1.000
    Cr99    Cr   0.96616   0.13577   0.30577   1.000
    Cr100   Cr   0.89037   0.94344   0.44652   1.000
    Cr101   Cr   0.59230   0.30577   0.13577   1.000
    Cr102   Cr   0.71966   0.44652   0.94344   1.000
    Cr103   Cr   0.30577   0.59230   0.96616   1.000
    Cr104   Cr   0.44652   0.71966   0.89037   1.000
    Cr105   Cr   0.59230   0.13577   0.96616   1.000
    Cr106   Cr   0.71966   0.94344   0.89037   1.000
    Cr107   Cr   0.30577   0.96616   0.13577   1.000
    Cr108   Cr   0.44652   0.89037   0.94344   1.000
    Cr109   Cr   0.13577   0.59230   0.30577   1.000
    Cr110   Cr   0.94344   0.71966   0.44652   1.000
    Cr111   Cr   0.96616   0.30577   0.59230   1.000
    Cr112   Cr   0.89037   0.44652   0.71966   1.000
    Cr113   Cr   0.96616   0.59230   0.13577   1.000
    Cr114   Cr   0.89037   0.71966   0.94344   1.000
    Cr115   Cr   0.13577   0.30577   0.96616   1.000
    Cr116   Cr   0.94344   0.44652   0.89037   1.000
    Cr117   Cr   0.30577   0.13577   0.59230   1.000
    Cr118   Cr   0.44652   0.94344   0.71966   1.000
    Cr119   Cr   0.59230   0.96616   0.30577   1.000
    Cr120   Cr   0.71966   0.89037   0.44652   1.000
    Cr121   Cr   0.11423   0.28384   0.94423   1.000
    Cr122   Cr   0.30656   0.35963   0.80348   1.000
    Cr123   Cr   0.28384   0.11423   0.65770   1.000
    Cr124   Cr   0.35963   0.30656   0.53034   1.000
    Cr125   Cr   0.65770   0.94423   0.28384   1.000
    Cr126   Cr   0.53034   0.80348   0.35963   1.000
    Cr127   Cr   0.94423   0.65770   0.11423   1.000
    Cr128   Cr   0.80348   0.53034   0.30656   1.000
    Cr129   Cr   0.65770   0.11423   0.94423   1.000
    Cr130   Cr   0.53034   0.30656   0.80348   1.000
    Cr131   Cr   0.94423   0.28384   0.65770   1.000
    Cr132   Cr   0.80348   0.35963   0.53034   1.000
    Cr133   Cr   0.11423   0.65770   0.28384   1.000
    Cr134   Cr   0.30656   0.53034   0.35963   1.000
    Cr135   Cr   0.28384   0.94423   0.11423   1.000
    Cr136   Cr   0.35963   0.80348   0.30656   1.000
    Cr137   Cr   0.28384   0.65770   0.94423   1.000
    Cr138   Cr   0.35963   0.53034   0.80348   1.000
    Cr139   Cr   0.11423   0.94423   0.65770   1.000
    Cr140   Cr   0.30656   0.80348   0.53034   1.000
    Cr141   Cr   0.94423   0.11423   0.28384   1.000
    Cr142   Cr   0.80348   0.30656   0.35963   1.000
    Cr143   Cr   0.65770   0.28384   0.11423   1.000
    Cr144   Cr   0.53034   0.35963   0.30656   1.000
    Cr145   Cr   0.41880   0.47185   0.47185   1.000
    Cr146   Cr   0.47185   0.41880   0.63750   1.000
    Cr147   Cr   0.47185   0.63750   0.41880   1.000
    Cr148   Cr   0.63750   0.47185   0.47185   1.000
    Cr149   Cr   0.47185   0.41880   0.47185   1.000
    Cr150   Cr   0.63750   0.47185   0.41880   1.000
    Cr151   Cr   0.41880   0.47185   0.63750   1.000
    Cr152   Cr   0.47185   0.63750   0.47185   1.000
    Cr153   Cr   0.47185   0.47185   0.41880   1.000
    Cr154   Cr   0.41880   0.63750   0.47185   1.000
    Cr155   Cr   0.63750   0.41880   0.47185   1.000
    Cr156   Cr   0.47185   0.47185   0.63750   1.000
    Cr157   Cr   0.83120   0.77815   0.61250   1.000
    Cr158   Cr   0.77815   0.83120   0.77815   1.000
    Cr159   Cr   0.77815   0.61250   0.77815   1.000
    Cr160   Cr   0.61250   0.77815   0.83120   1.000
    Cr161   Cr   0.77815   0.83120   0.61250   1.000
    Cr162   Cr   0.61250   0.77815   0.77815   1.000
    Cr163   Cr   0.83120   0.77815   0.77815   1.000
    Cr164   Cr   0.77815   0.61250   0.83120   1.000
    Cr165   Cr   0.77815   0.77815   0.61250   1.000
    Cr166   Cr   0.83120   0.61250   0.77815   1.000
    Cr167   Cr   0.61250   0.83120   0.77815   1.000
    Cr168   Cr   0.77815   0.77815   0.83120   1.000
    Cr169   Cr   0.12500   0.34065   0.62500   1.000
    O170    O    0.12500   0.31008   0.62500   1.000
    Cr171   Cr   0.34065   0.12500   0.90935   1.000
    O172    O    0.31008   0.12500   0.93992   1.000
    Cr173   Cr   0.62500   0.90935   0.12500   1.000
    O174    O    0.62500   0.93992   0.12500   1.000
    Cr175   Cr   0.90935   0.62500   0.34065   1.000
    O176    O    0.93992   0.62500   0.31008   1.000
    Cr177   Cr   0.62500   0.12500   0.34065   1.000
    O178    O    0.62500   0.12500   0.31008   1.000
    Cr179   Cr   0.90935   0.34065   0.12500   1.000
    O180    O    0.93992   0.31008   0.12500   1.000
    Cr181   Cr   0.12500   0.62500   0.90935   1.000
    O182    O    0.12500   0.62500   0.93992   1.000
    Cr183   Cr   0.34065   0.90935   0.62500   1.000
    O184    O    0.31008   0.93992   0.62500   1.000
    Cr185   Cr   0.34065   0.62500   0.12500   1.000
    O186    O    0.31008   0.62500   0.12500   1.000
    Cr187   Cr   0.12500   0.90935   0.34065   1.000
    O188    O    0.12500   0.93992   0.31008   1.000
    Cr189   Cr   0.90935   0.12500   0.62500   1.000
    O190    O    0.93992   0.12500   0.62500   1.000
    Cr191   Cr   0.62500   0.34065   0.90935   1.000
    O192    O    0.62500   0.31008   0.93992   1.000
    Cr193   Cr   0.12500   0.90935   0.62500   1.000
    Cr194   Cr   0.73756   0.73756   0.23592   1.000
    Cr195   Cr   0.73756   0.73756   0.28896   1.000
    Cr196   Cr   0.73756   0.23592   0.28896   1.000
    Cr197   Cr   0.73756   0.28896   0.23592   1.000
    Cr198   Cr   0.23592   0.73756   0.73756   1.000
    Cr199   Cr   0.28896   0.73756   0.73756   1.000
    Cr200   Cr   0.28896   0.73756   0.23592   1.000
    Cr201   Cr   0.23592   0.73756   0.28896   1.000
    Cr202   Cr   0.73756   0.23592   0.73756   1.000
    Cr203   Cr   0.73756   0.28896   0.73756   1.000
    Cr204   Cr   0.01408   0.96104   0.51244   1.000
    Cr205   Cr   0.96104   0.01408   0.51244   1.000
    Cr206   Cr   0.51244   0.51244   0.96104   1.000
    Cr207   Cr   0.51244   0.51244   0.01408   1.000
    Cr208   Cr   0.51244   0.01408   0.51244   1.000
    Cr209   Cr   0.51244   0.96104   0.51244   1.000
    Cr210   Cr   0.01408   0.51244   0.96104   1.000
    Cr211   Cr   0.96104   0.51244   0.01408   1.000
    Cr212   Cr   0.96104   0.51244   0.51244   1.000
    Cr213   Cr   0.01408   0.51244   0.51244   1.000
    Cr214   Cr   0.51244   0.01408   0.96104   1.000
    Cr215   Cr   0.51244   0.96104   0.01408   1.000
    Cr216   Cr   0.32574   0.32574   0.49285   1.000
    O217    O    0.33063   0.33063   0.51787   1.000
    Cr218   Cr   0.32574   0.32574   0.85566   1.000
    O219    O    0.33063   0.33063   0.82086   1.000
    Cr220   Cr   0.49285   0.85566   0.32574   1.000
    O221    O    0.51787   0.82086   0.33063   1.000
    Cr222   Cr   0.85566   0.49285   0.32574   1.000
    O223    O    0.82086   0.51787   0.33063   1.000
    Cr224   Cr   0.49285   0.32574   0.32574   1.000
    O225    O    0.51787   0.33063   0.33063   1.000
    Cr226   Cr   0.85566   0.32574   0.32574   1.000
    O227    O    0.82086   0.33063   0.33063   1.000
    Cr228   Cr   0.32574   0.49285   0.85566   1.000
    O229    O    0.33063   0.51787   0.82086   1.000
    Cr230   Cr   0.32574   0.85566   0.49285   1.000
    O231    O    0.33063   0.82086   0.51787   1.000
    Cr232   Cr   0.32574   0.49285   0.32574   1.000
    O233    O    0.33063   0.51787   0.33063   1.000
    Cr234   Cr   0.32574   0.85566   0.32574   1.000
    O235    O    0.33063   0.82086   0.33063   1.000
    Cr236   Cr   0.85566   0.32574   0.49285   1.000
    O237    O    0.82086   0.33063   0.51787   1.000
    Cr238   Cr   0.49285   0.32574   0.85566   1.000
    O239    O    0.51787   0.33063   0.82086   1.000
    Cr240   Cr   0.92426   0.92426   0.39434   1.000
    O241    O    0.91937   0.91937   0.42914   1.000
    Cr242   Cr   0.92426   0.92426   0.75715   1.000
    O243    O    0.91937   0.91937   0.73213   1.000
    Cr244   Cr   0.75715   0.39434   0.92426   1.000
    O245    O    0.73213   0.42914   0.91937   1.000
    Cr246   Cr   0.39434   0.75715   0.92426   1.000
    O247    O    0.42914   0.73213   0.91937   1.000
    Cr248   Cr   0.75715   0.92426   0.39434   1.000
    O249    O    0.73213   0.91937   0.42914   1.000
    Cr250   Cr   0.39434   0.92426   0.75715   1.000
    O251    O    0.42914   0.91937   0.73213   1.000
    Cr252   Cr   0.92426   0.75715   0.92426   1.000
    O253    O    0.91937   0.73213   0.91937   1.000
    Cr254   Cr   0.92426   0.39434   0.92426   1.000
    O255    O    0.91937   0.42914   0.91937   1.000
    Cr256   Cr   0.92426   0.75715   0.39434   1.000
    O257    O    0.91937   0.73213   0.42914   1.000
    Cr258   Cr   0.92426   0.39434   0.75715   1.000
    O259    O    0.91937   0.42914   0.73213   1.000
    Cr260   Cr   0.39434   0.92426   0.92426   1.000
    O261    O    0.42914   0.91937   0.91937   1.000
    Cr262   Cr   0.75715   0.92426   0.92426   1.000
    O263    O    0.73213   0.91937   0.91937   1.000
    O264    O    0.45414   0.45414   0.45414   1.000
    O265    O    0.45414   0.45414   0.63759   1.000
    O266    O    0.45414   0.63759   0.45414   1.000
    O267    O    0.63759   0.45414   0.45414   1.000
    O268    O    0.79586   0.79586   0.61241   1.000
    O269    O    0.79586   0.79586   0.79586   1.000
    O270    O    0.79586   0.61241   0.79586   1.000
    O271    O    0.61241   0.79586   0.79586   1.000
loop_
    _geom_bond_atom_site_label_1
    _geom_bond_atom_site_label_2
    _geom_bond_distance
    _geom_bond_site_symmetry_2
    _ccdc_geom_bond_type
    Cr215  O96       1.92625  1_554   S
    Cr211  O92       1.92625  1_554   S
    Cr207  O88       1.92625  1_554   S
    Cr143  O54       1.93298      .   S
    Cr59   O60       1.92102      .   S
    Cr173  O174      1.92102      .   S
    O174   Cr46      1.93298      .   S
    Cr179  O180      1.92102      .   S
    O60    Cr107     1.93298      .   S
    O54    Cr53      1.92102      .   S
    Cr65   O66       1.92102      .   S
    O66    Cr113     1.93298      .   S
    O186   Cr185     1.92102      .   S
    O186   Cr30      1.93298      .   S
    O180   Cr38      1.93298      .   S
    Cr200  O82       1.92625      .   S
    Cr194  O76       1.92625      .   S
    Cr197  O78       1.92625      .   S
    O78    Cr196     1.92625      .   S
    O76    Cr195     1.92625      .   S
    O82    Cr201     1.92625      .   S
    Cr6    O176      1.93298      .   S
    Cr133  O62       1.93298      .   S
    Cr8    O178      1.93298      .   S
    Cr99   O52       1.93298      .   S
    Cr119  O72       1.93298      .   S
    Cr24   O188      1.93298      .   S
    Cr144  O225      1.92593      .   S
    Cr17   O233      1.92593      .   S
    Cr5    O221      1.92498      .   S
    Cr136  O235      1.92532      .   S
    Cr11   O227      1.92532      .   S
    Cr128  O223      1.92498      .   S
    O178   Cr177     1.92102      .   S
    O188   Cr187     1.92102      .   S
    O62    Cr61      1.92102      .   S
    O72    Cr71      1.92102      .   S
    O52    Cr51      1.92102      .   S
    O176   Cr175     1.92102      .   S
    O227   Cr142     1.92532      .   S
    O235   Cr19      1.92532      .   S
    O221   Cr126     1.92607      .   S
    O233   Cr134     1.92593      .   S
    O223   Cr7       1.92607      .   S
    O225   Cr9       1.92593      .   S
    Cr147  O266      1.92487      .   S
    Cr153  O264      1.92469      .   S
    O257   Cr41      1.92607      .   S
    O257   Cr110     1.92498      .   S
    O241   Cr100     1.92532      .   S
    O241   Cr25      1.92532      .   S
    O249   Cr120     1.92607      .   S
    O249   Cr33      1.92498      .   S
    O267   Cr148     1.92433      .   S
    O267   Cr155     1.92487      .   S
    O266   Cr152     1.92433      .   S
    O264   Cr149     1.92469      .   S
    O90    Cr209     1.92625      .   S
    O90    Cr208     1.92625  1_565   S
    O94    Cr212     1.92625      .   S
    O94    Cr213     1.92625  1_655   S
    O86    Cr205     1.92625  1_565   S
    O86    Cr204     1.92625  1_655   S
    O217   Cr0       1.92593      .   S
    O217   Cr124     1.92593      .   S
    O237   Cr132     1.92607      .   S
    O237   Cr21      1.92498      .   S
    O231   Cr140     1.92498      .   S
    O231   Cr15      1.92607      .   S
    Cr117  O70       1.93298      .   S
    Cr42   O170      1.93298      .   S
    O268   Cr161     1.92487      .   S
    O268   Cr165     1.92433      .   S
    Cr69   O70       1.92102      .   S
    Cr193  O50       1.92102      .   S
    O64    Cr63      1.92102      .   S
    O64    Cr131     1.93298      .   S
    O50    Cr139     1.93298      .   S
    Cr169  O170      1.92102      .   S
    Cr183  O184      1.92102      .   S
    O184   Cr14      1.93298      .   S
    O190   Cr189     1.92102      .   S
    O190   Cr20      1.93298      .   S
    Cr156  O265      1.92433      .   S
    Cr146  O265      1.92487      .   S
    Cr118  O251      1.92498      .   S
    Cr112  O259      1.92607      .   S
    Cr43   O259      1.92498      .   S
    Cr35   O251      1.92607      .   S
    Cr49   O243      1.92593      .   S
    Cr27   O243      1.92593      .   S
    Cr202  O84       1.92625      .   S
    Cr98   O74       1.92625      .   S
    Cr203  O84       1.92625      .   S
    Cr198  O80       1.92625      .   S
    Cr97   O74       1.92625      .   S
    Cr199  O80       1.92625      .   S
    Cr158  O269      1.92469      .   S
    Cr159  O270      1.92433      .   S
    Cr162  O271      1.92433      .   S
    Cr166  O270      1.92487      .   S
    O271   Cr160     1.92487      .   S
    O269   Cr168     1.92469      .   S
    Cr23   O239      1.92607      .   S
    Cr122  O219      1.92532      .   S
    Cr130  O239      1.92498      .   S
    Cr138  O229      1.92607      .   S
    Cr13   O229      1.92498      .   S
    Cr3    O219      1.92532      .   S
    Cr37   O253      1.92593      .   S
    Cr106  O263      1.92593      .   S
    Cr104  O247      1.92607      .   S
    Cr45   O261      1.92532      .   S
    Cr29   O245      1.92607      .   S
    Cr116  O255      1.92532      .   S
    Cr57   O58       1.92102      .   S
    Cr171  O172      1.92102      .   S
    Cr181  O182      1.92102      .   S
    Cr191  O192      1.92102      .   S
    Cr67   O68       1.92102      .   S
    Cr55   O56       1.92102      .   S
    O247   Cr31      1.92498      .   S
    O245   Cr102     1.92498      .   S
    O263   Cr47      1.92593      .   S
    O255   Cr39      1.92532      .   S
    O261   Cr108     1.92532      .   S
    O253   Cr114     1.92593      .   S
    O182   Cr12      1.93298      .   S
    O68    Cr115     1.93298      .   S
    O58    Cr129     1.93298      .   S
    O56    Cr137     1.93298      .   S
    O192   Cr22      1.93298      .   S
    O172   Cr44      1.93298      .   S
    Cr214  O96       1.92625  1_545   S
    Cr210  O92       1.92625  1_455   S
    Cr206  O88       1.92625      .   S
    O170   Cr1       1.93298      .   S
    O172   Cr2       1.93298      .   S
    O174   Cr4       1.93298      .   S
    O176   Cr40      1.93298      .   S
    O178   Cr32      1.93298      .   S
    O180   Cr10      1.93298      .   S
    O182   Cr36      1.93298      .   S
    O184   Cr34      1.93298      .   S
    O186   Cr16      1.93298      .   S
    O188   Cr18      1.93298      .   S
    O190   Cr26      1.93298      .   S
    O192   Cr28      1.93298      .   S
    O50    Cr48      1.93298      .   S
    O52    Cr141     1.93298      .   S
    O54    Cr101     1.93298      .   S
    O56    Cr103     1.93298      .   S
    O58    Cr105     1.93298      .   S
    O60    Cr135     1.93298      .   S
    O62    Cr109     1.93298      .   S
    O64    Cr111     1.93298      .   S
    O66    Cr127     1.93298      .   S
    O68    Cr121     1.93298      .   S
    O70    Cr123     1.93298      .   S
    O72    Cr125     1.93298      .   S
    O74    Cr73      1.93201      .   S
    O76    Cr75      1.93201      .   S
    O78    Cr77      1.93201      .   S
    O80    Cr79      1.93201      .   S
    O82    Cr81      1.93201      .   S
    O84    Cr83      1.93201      .   S
    O86    Cr85      1.93201  1_665   S
    O88    Cr87      1.93201  1_556   S
    O90    Cr89      1.93201  1_565   S
    O92    Cr91      1.93201  1_656   S
    O94    Cr93      1.93201  1_655   S
    O96    Cr95      1.93201  1_566   S
    O217   Cr216     1.92913      .   S
    O219   Cr218     1.92913      .   S
    O221   Cr220     1.92913      .   S
    O223   Cr222     1.92913      .   S
    O225   Cr224     1.92913      .   S
    O227   Cr226     1.92913      .   S
    O229   Cr228     1.92913      .   S
    O231   Cr230     1.92913      .   S
    O233   Cr232     1.92913      .   S
    O235   Cr234     1.92913      .   S
    O237   Cr236     1.92913      .   S
    O239   Cr238     1.92913      .   S
    O241   Cr240     1.92913      .   S
    O243   Cr242     1.92913      .   S
    O245   Cr244     1.92913      .   S
    O247   Cr246     1.92913      .   S
    O249   Cr248     1.92913      .   S
    O251   Cr250     1.92913      .   S
    O253   Cr252     1.92913      .   S
    O255   Cr254     1.92913      .   S
    O257   Cr256     1.92913      .   S
    O259   Cr258     1.92913      .   S
    O261   Cr260     1.92913      .   S
    O263   Cr262     1.92913      .   S
    O264   Cr145     1.92469      .   S
    O265   Cr151     1.92487      .   S
    O266   Cr154     1.92487      .   S
    O267   Cr150     1.92487      .   S
    O268   Cr157     1.92487      .   S
    O269   Cr163     1.92469      .   S
    O270   Cr164     1.92487      .   S
    O271   Cr167     1.92487      .   S
