# CIF file generated by openbabel 2.4.90, see http://openbabel.sf.net
data_I
_chemical_name_common ''
_cell_length_a 62.8399
_cell_length_b 62.8399
_cell_length_c 62.8399
_cell_angle_alpha 60
_cell_angle_beta 60
_cell_angle_gamma 60
_space_group_name_H-M_alt 'P 1'
_space_group_name_Hall 'P 1'
loop_
    _symmetry_equiv_pos_as_xyz
    x,y,z
loop_
    _atom_site_label
    _atom_site_type_symbol
    _atom_site_fract_x
    _atom_site_fract_y
    _atom_site_fract_z
    _atom_site_occupancy
    N0      N    0.20562   0.20562   0.96380   1.000
    N1      N    0.76792   0.29883   0.29883   1.000
    N2      N    0.88792   0.22227   0.33589   1.000
    N3      N    0.88792   0.55392   0.22227   1.000
    N4      N    0.36208   0.02773   0.91411   1.000
    N5      N    0.84016   0.17314   0.28583   1.000
    N6      N    0.88792   0.33589   0.22227   1.000
    N7      N    0.91411   0.02773   0.36208   1.000
    N8      N    0.55773   0.44227   0.44227   1.000
    N9      N    0.71691   0.38801   0.38801   1.000
    N10     N    0.83087   0.31154   0.42880   1.000
    N11     N    0.96379   0.20562   0.20562   1.000
    N12     N    0.28583   0.17314   0.84016   1.000
    N13     N    0.33589   0.22227   0.55392   1.000
    N14     N    0.29883   0.29883   0.63443   1.000
    N15     N    0.17314   0.28583   0.70086   1.000
    N16     N    0.38801   0.38801   0.50707   1.000
    N17     N    0.44227   0.44227   0.55773   1.000
    N18     N    0.20562   0.20562   0.62498   1.000
    N19     N    0.31154   0.42880   0.42880   1.000
    N20     N    0.22227   0.33589   0.55392   1.000
    N21     N    0.02773   0.36208   0.69608   1.000
    N22     N    0.04438   0.28621   0.62503   1.000
    N23     N    0.42880   0.31154   0.42880   1.000
    N24     N    0.22227   0.33589   0.88792   1.000
    N25     N    0.29883   0.29883   0.76792   1.000
    N26     N    0.42880   0.83087   0.31154   1.000
    N27     N    0.55392   0.88792   0.33589   1.000
    N28     N    0.38801   0.50707   0.71691   1.000
    N29     N    0.31154   0.42880   0.83087   1.000
    N30     N    0.28583   0.84016   0.70086   1.000
    N31     N    0.29883   0.76792   0.63443   1.000
    N32     N    0.07686   0.96417   0.54914   1.000
    N33     N    0.95117   0.95117   0.61557   1.000
    N34     N    0.91411   0.02773   0.69608   1.000
    N35     N    0.38801   0.71691   0.38801   1.000
    N36     N    0.31154   0.83087   0.42880   1.000
    N37     N    0.20562   0.96379   0.20562   1.000
    N38     N    0.70086   0.84016   0.17314   1.000
    N39     N    0.63443   0.76792   0.29883   1.000
    N40     N    0.55773   0.55773   0.44227   1.000
    N41     N    0.22227   0.55392   0.33589   1.000
    N42     N    0.44227   0.55773   0.44227   1.000
    N43     N    0.55392   0.33589   0.22227   1.000
    N44     N    0.55392   0.88792   0.22227   1.000
    N45     N    0.50707   0.71691   0.38801   1.000
    N46     N    0.62498   0.20562   0.96380   1.000
    N47     N    0.54914   0.40984   0.96417   1.000
    N48     N    0.61557   0.48208   0.95117   1.000
    N49     N    0.62497   0.96379   0.20562   1.000
    N50     N    0.02773   0.91411   0.69608   1.000
    N51     N    0.88792   0.22227   0.55392   1.000
    N52     N    0.33589   0.88792   0.55392   1.000
    N53     N    0.88792   0.33589   0.55392   1.000
    N54     N    0.96417   0.07686   0.54914   1.000
    N55     N    0.07686   0.40984   0.54914   1.000
    N56     N    0.40984   0.96417   0.54914   1.000
    N57     N    0.96417   0.40984   0.54914   1.000
    N58     N    0.40984   0.07686   0.54914   1.000
    N59     N    0.70086   0.17314   0.28583   1.000
    N60     N    0.42880   0.83087   0.42880   1.000
    N61     N    0.20562   0.62497   0.20562   1.000
    N62     N    0.28583   0.70086   0.17314   1.000
    N63     N    0.44227   0.55773   0.55773   1.000
    N64     N    0.69608   0.91411   0.02773   1.000
    N65     N    0.17314   0.84016   0.70086   1.000
    N66     N    0.86199   0.74293   0.53309   1.000
    N67     N    0.74294   0.86199   0.53309   1.000
    N68     N    0.86199   0.86199   0.53309   1.000
    N69     N    0.22227   0.88792   0.55392   1.000
    N70     N    0.17314   0.70086   0.84016   1.000
    N71     N    0.33589   0.88792   0.22227   1.000
    N72     N    0.02773   0.91411   0.36208   1.000
    N73     N    0.20562   0.96379   0.62498   1.000
    N74     N    0.04438   0.04438   0.28621   1.000
    N75     N    0.17314   0.84016   0.28583   1.000
    N76     N    0.33589   0.55392   0.22227   1.000
    N77     N    0.36208   0.69608   0.02773   1.000
    N78     N    0.48208   0.61557   0.95117   1.000
    N79     N    0.36208   0.69608   0.91411   1.000
    N80     N    0.20562   0.62498   0.96380   1.000
    N81     N    0.96417   0.07686   0.40984   1.000
    N82     N    0.95117   0.95117   0.48208   1.000
    N83     N    0.80773   0.80773   0.69227   1.000
    N84     N    0.71691   0.38801   0.50707   1.000
    N85     N    0.38801   0.71691   0.50707   1.000
    N86     N    0.38801   0.50706   0.38801   1.000
    N87     N    0.29883   0.76792   0.29883   1.000
    N88     N    0.93846   0.82120   0.41913   1.000
    N89     N    0.17314   0.70086   0.28583   1.000
    N90     N    0.71691   0.50706   0.38801   1.000
    N91     N    0.22227   0.88792   0.33589   1.000
    N92     N    0.28621   0.62502   0.04438   1.000
    N93     N    0.40984   0.54914   0.96417   1.000
    N94     N    0.07686   0.54914   0.40984   1.000
    N95     N    0.95117   0.61557   0.48208   1.000
    N96     N    0.91411   0.69608   0.36208   1.000
    N97     N    0.96417   0.54914   0.40984   1.000
    N98     N    0.28583   0.84016   0.17314   1.000
    N99     N    0.84016   0.70086   0.17314   1.000
    N100    N    0.84016   0.28583   0.17314   1.000
    N101    N    0.70086   0.28583   0.17314   1.000
    N102    N    0.62497   0.20562   0.20562   1.000
    N103    N    0.82120   0.93846   0.41913   1.000
    N104    N    0.29883   0.63443   0.29883   1.000
    N105    N    0.95117   0.48208   0.61557   1.000
    N106    N    0.91411   0.36208   0.69608   1.000
    N107    N    0.86199   0.74294   0.86199   1.000
    N108    N    0.82120   0.82120   0.93846   1.000
    N109    N    0.04438   0.62502   0.04438   1.000
    N110    N    0.96417   0.54914   0.07686   1.000
    N111    N    0.95117   0.61557   0.95117   1.000
    N112    N    0.02773   0.69608   0.91411   1.000
    N113    N    0.84016   0.70086   0.28583   1.000
    N114    N    0.69608   0.36208   0.02773   1.000
    N115    N    0.91411   0.69608   0.02773   1.000
    N116    N    0.91411   0.36208   0.02773   1.000
    N117    N    0.36208   0.91411   0.02773   1.000
    N118    N    0.96417   0.40984   0.07686   1.000
    N119    N    0.40984   0.96417   0.07686   1.000
    N120    N    0.54914   0.96417   0.07686   1.000
    N121    N    0.96379   0.62497   0.20562   1.000
    N122    N    0.38801   0.38801   0.71691   1.000
    N123    N    0.63443   0.29883   0.29883   1.000
    N124    N    0.55392   0.22227   0.33589   1.000
    N125    N    0.50706   0.38801   0.38801   1.000
    N126    N    0.42880   0.42880   0.31154   1.000
    N127    N    0.62502   0.28621   0.04438   1.000
    N128    N    0.28621   0.04438   0.62503   1.000
    N129    N    0.28583   0.17314   0.70086   1.000
    N130    N    0.83087   0.42880   0.31154   1.000
    N131    N    0.76792   0.63443   0.29883   1.000
    N132    N    0.69608   0.02773   0.36208   1.000
    N133    N    0.69608   0.91411   0.36208   1.000
    N134    N    0.02773   0.69608   0.36208   1.000
    N135    N    0.83087   0.42880   0.42880   1.000
    N136    N    0.42880   0.31154   0.83087   1.000
    N137    N    0.28620   0.04438   0.04438   1.000
    N138    N    0.48208   0.95117   0.61557   1.000
    N139    N    0.48208   0.95117   0.95117   1.000
    N140    N    0.53309   0.86199   0.86199   1.000
    N141    N    0.41913   0.82120   0.93846   1.000
    N142    N    0.41913   0.93846   0.82120   1.000
    N143    N    0.69227   0.69227   0.80773   1.000
    N144    N    0.53309   0.74294   0.86199   1.000
    N145    N    0.41913   0.82120   0.82120   1.000
    N146    N    0.07686   0.54914   0.96417   1.000
    N147    N    0.33589   0.22227   0.88792   1.000
    N148    N    0.55773   0.44227   0.55773   1.000
    N149    N    0.04438   0.04438   0.62503   1.000
    N150    N    0.69608   0.36208   0.91411   1.000
    N151    N    0.74293   0.53309   0.86199   1.000
    N152    N    0.82120   0.41913   0.93846   1.000
    N153    N    0.80773   0.69227   0.80773   1.000
    N154    N    0.93846   0.82120   0.82120   1.000
    N155    N    0.36208   0.91411   0.69608   1.000
    N156    N    0.36208   0.02773   0.69608   1.000
    N157    N    0.69227   0.80773   0.69227   1.000
    N158    N    0.53309   0.86199   0.74294   1.000
    N159    N    0.33589   0.55392   0.88792   1.000
    N160    N    0.82120   0.82120   0.41913   1.000
    N161    N    0.04438   0.62502   0.28621   1.000
    N162    N    0.69227   0.80773   0.80773   1.000
    N163    N    0.22227   0.55392   0.88792   1.000
    N164    N    0.70086   0.84016   0.28583   1.000
    N165    N    0.62502   0.04438   0.28621   1.000
    N166    N    0.80773   0.69227   0.69227   1.000
    N167    N    0.07686   0.96417   0.40984   1.000
    N168    N    0.54914   0.96417   0.40984   1.000
    N169    N    0.54914   0.07686   0.40984   1.000
    N170    N    0.88792   0.55392   0.33589   1.000
    N171    N    0.54914   0.40984   0.07686   1.000
    N172    N    0.62502   0.04438   0.04438   1.000
    N173    N    0.55392   0.33589   0.88792   1.000
    N174    N    0.96380   0.20562   0.62497   1.000
    N175    N    0.86199   0.53309   0.86199   1.000
    N176    N    0.95117   0.48208   0.95117   1.000
    N177    N    0.50706   0.38801   0.71691   1.000
    N178    N    0.42880   0.42880   0.83087   1.000
    N179    N    0.40984   0.54914   0.07686   1.000
    N180    N    0.61557   0.95117   0.48208   1.000
    N181    N    0.04438   0.28621   0.04438   1.000
    N182    N    0.29883   0.63443   0.76792   1.000
    N183    N    0.28583   0.70086   0.84016   1.000
    N184    N    0.86199   0.53309   0.74294   1.000
    N185    N    0.84016   0.17314   0.70086   1.000
    N186    N    0.76792   0.29883   0.63443   1.000
    N187    N    0.93846   0.41913   0.82120   1.000
    N188    N    0.82120   0.41913   0.82120   1.000
    N189    N    0.84016   0.28583   0.70086   1.000
    N190    N    0.74293   0.86199   0.86199   1.000
    N191    N    0.17314   0.28583   0.84016   1.000
    N192    N    0.70086   0.17314   0.84016   1.000
    N193    N    0.63443   0.29883   0.76792   1.000
    N194    N    0.55392   0.22227   0.88792   1.000
    N195    N    0.40984   0.07686   0.96417   1.000
    N196    N    0.07686   0.40984   0.96417   1.000
    N197    N    0.61557   0.95117   0.95117   1.000
    N198    N    0.70086   0.28583   0.84016   1.000
    N199    N    0.82120   0.93846   0.82120   1.000
    N200    N    0.54914   0.07686   0.96417   1.000
    N201    N    0.02773   0.36208   0.91411   1.000
    N202    N    0.69608   0.02773   0.91411   1.000
    N203    N    0.86199   0.86199   0.74294   1.000
    Zr204   Zr   0.12500   0.93992   0.31009   1.000
    Zr205   Zr   0.33064   0.82087   0.33064   1.000
    Zr206   Zr   0.62500   0.93991   0.31009   1.000
    Zr207   Zr   0.51785   0.82087   0.33064   1.000
    Zr208   Zr   0.93991   0.12500   0.31009   1.000
    Zr209   Zr   0.82087   0.33064   0.33064   1.000
    Zr210   Zr   0.33064   0.33064   0.51785   1.000
    Zr211   Zr   0.82087   0.33064   0.51785   1.000
    Zr212   Zr   0.33064   0.82087   0.51785   1.000
    Zr213   Zr   0.93991   0.31008   0.62500   1.000
    Zr214   Zr   0.91936   0.42913   0.73215   1.000
    Zr215   Zr   0.91936   0.91936   0.42913   1.000
    Zr216   Zr   0.62500   0.93992   0.12500   1.000
    Zr217   Zr   0.12500   0.62500   0.31009   1.000
    Zr218   Zr   0.12500   0.62500   0.93992   1.000
    Zr219   Zr   0.33064   0.51785   0.82087   1.000
    Zr220   Zr   0.31008   0.62500   0.93992   1.000
    Zr221   Zr   0.42913   0.73215   0.91936   1.000
    Zr222   Zr   0.91936   0.73215   0.91936   1.000
    Zr223   Zr   0.31008   0.93992   0.12500   1.000
    Zr224   Zr   0.42913   0.91936   0.91936   1.000
    Zr225   Zr   0.93992   0.62500   0.12500   1.000
    Zr226   Zr   0.31008   0.62500   0.12500   1.000
    Zr227   Zr   0.93992   0.31008   0.12500   1.000
    Zr228   Zr   0.91936   0.42913   0.91936   1.000
    Zr229   Zr   0.93991   0.62500   0.31009   1.000
    Zr230   Zr   0.82087   0.51785   0.33064   1.000
    Zr231   Zr   0.51785   0.33064   0.33064   1.000
    Zr232   Zr   0.73215   0.91936   0.42913   1.000
    Zr233   Zr   0.42913   0.91936   0.73215   1.000
    Zr234   Zr   0.62500   0.12500   0.31009   1.000
    Zr235   Zr   0.31008   0.12500   0.93992   1.000
    Zr236   Zr   0.91936   0.73215   0.42913   1.000
    Zr237   Zr   0.25157   0.74843   0.25157   1.000
    Zr238   Zr   0.74843   0.25157   0.74843   1.000
    Zr239   Zr   0.99843   0.99843   0.50157   1.000
    Zr240   Zr   0.50157   0.50157   0.99843   1.000
    Zr241   Zr   0.50157   0.99843   0.50157   1.000
    Zr242   Zr   0.99843   0.50157   0.99843   1.000
    Zr243   Zr   0.99843   0.50157   0.50157   1.000
    Zr244   Zr   0.50157   0.99843   0.99843   1.000
    Zr245   Zr   0.25157   0.25157   0.74843   1.000
    Zr246   Zr   0.62500   0.31008   0.93992   1.000
    Zr247   Zr   0.33064   0.33064   0.82087   1.000
    Zr248   Zr   0.51785   0.33064   0.82087   1.000
    Zr249   Zr   0.63752   0.45416   0.45416   1.000
    Zr250   Zr   0.45416   0.45416   0.63752   1.000
    Zr251   Zr   0.45416   0.63752   0.45416   1.000
    Zr252   Zr   0.45416   0.45416   0.45416   1.000
    Zr253   Zr   0.79584   0.79584   0.61248   1.000
    Zr254   Zr   0.79584   0.79584   0.79584   1.000
    Zr255   Zr   0.79584   0.61248   0.79584   1.000
    Zr256   Zr   0.61248   0.79584   0.79584   1.000
    Zr257   Zr   0.12500   0.31009   0.62500   1.000
    Zr258   Zr   0.62500   0.12500   0.93992   1.000
    Zr259   Zr   0.73215   0.91936   0.91936   1.000
    Zr260   Zr   0.74843   0.74843   0.25157   1.000
    Zr261   Zr   0.74843   0.25157   0.25157   1.000
    Zr262   Zr   0.25157   0.74843   0.74843   1.000
    Zr263   Zr   0.12500   0.93991   0.62500   1.000
    Zr264   Zr   0.31008   0.93991   0.62500   1.000
    Zr265   Zr   0.93991   0.12500   0.62500   1.000
    Zr266   Zr   0.62500   0.31008   0.12500   1.000
    Zr267   Zr   0.91936   0.91936   0.73215   1.000
    Zr268   Zr   0.73215   0.42913   0.91936   1.000
    Zr269   Zr   0.31008   0.12500   0.62500   1.000
    Zr270   Zr   0.33064   0.51785   0.33064   1.000
    Zr271   Zr   0.12500   0.31008   0.93992   1.000
    O272    O    0.40762   0.95412   0.91510   1.000
    O273    O    0.32549   0.09543   0.92971   1.000
    O274    O    0.61429   0.44873   0.44873   1.000
    O275    O    0.48826   0.44873   0.44873   1.000
    O276    O    0.90809   0.13799   0.30337   1.000
    O277    O    0.77629   0.22444   0.26329   1.000
    O278    O    0.26776   0.26776   0.71283   1.000
    O279    O    0.32185   0.32185   0.55452   1.000
    O280    O    0.43297   0.47342   0.66064   1.000
    O281    O    0.34784   0.51764   0.78668   1.000
    O282    O    0.32185   0.49060   0.82566   1.000
    O283    O    0.32185   0.36189   0.82566   1.000
    O284    O    0.81703   0.77658   0.58936   1.000
    O285    O    0.76174   0.80127   0.63571   1.000
    O286    O    0.80127   0.80127   0.63571   1.000
    O287    O    0.77658   0.81703   0.58936   1.000
    O288    O    0.81703   0.81703   0.58936   1.000
    O289    O    0.80127   0.76174   0.63571   1.000
    O290    O    0.98671   0.02556   0.51402   1.000
    O291    O    0.94663   0.11201   0.59944   1.000
    O292    O    0.55452   0.32185   0.80177   1.000
    O293    O    0.71283   0.26776   0.75164   1.000
    O294    O    0.44873   0.48826   0.61429   1.000
    O295    O    0.44873   0.61429   0.48826   1.000
    O296    O    0.90216   0.73236   0.46332   1.000
    O297    O    0.32549   0.64937   0.09543   1.000
    O298    O    0.40762   0.72317   0.95412   1.000
    O299    O    0.22444   0.73598   0.77629   1.000
    O300    O    0.13799   0.65056   0.90809   1.000
    O301    O    0.13799   0.65056   0.30337   1.000
    O302    O    0.11201   0.59944   0.34191   1.000
    O303    O    0.09543   0.64937   0.32549   1.000
    O304    O    0.14831   0.62500   0.27622   1.000
    O305    O    0.15457   0.60063   0.32029   1.000
    O306    O    0.10169   0.62500   0.29954   1.000
    O307    O    0.30337   0.65056   0.13799   1.000
    O308    O    0.26329   0.73598   0.22444   1.000
    O309    O    0.91509   0.95412   0.72317   1.000
    O310    O    0.92971   0.09543   0.64937   1.000
    O311    O    0.32029   0.60063   0.15457   1.000
    O312    O    0.33491   0.52683   0.29588   1.000
    O313    O    0.92815   0.69548   0.44823   1.000
    O314    O    0.98224   0.53717   0.49836   1.000
    O315    O    0.27622   0.62500   0.95046   1.000
    O316    O    0.14831   0.62500   0.95046   1.000
    O317    O    0.60063   0.92451   0.15457   1.000
    O318    O    0.52683   0.84238   0.29588   1.000
    O319    O    0.51764   0.78668   0.34784   1.000
    O320    O    0.47342   0.66064   0.43297   1.000
    O321    O    0.34784   0.78668   0.51764   1.000
    O322    O    0.43297   0.66064   0.47342   1.000
    O323    O    0.29588   0.84238   0.33491   1.000
    O324    O    0.15457   0.92451   0.32029   1.000
    O325    O    0.34784   0.51764   0.34784   1.000
    O326    O    0.43297   0.47342   0.43297   1.000
    O327    O    0.91509   0.40762   0.95412   1.000
    O328    O    0.92815   0.44823   0.92815   1.000
    O329    O    0.90216   0.46332   0.90216   1.000
    O330    O    0.92815   0.42434   0.88811   1.000
    O331    O    0.95412   0.40762   0.91510   1.000
    O332    O    0.88811   0.42434   0.92815   1.000
    O333    O    0.82566   0.32185   0.49060   1.000
    O334    O    0.82566   0.32185   0.36189   1.000
    O335    O    0.66064   0.47342   0.43297   1.000
    O336    O    0.78668   0.51764   0.34784   1.000
    O337    O    0.13799   0.30337   0.90809   1.000
    O338    O    0.15457   0.32029   0.92451   1.000
    O339    O    0.10169   0.29954   0.97378   1.000
    O340    O    0.09543   0.32549   0.92971   1.000
    O341    O    0.11201   0.34191   0.94663   1.000
    O342    O    0.14831   0.27622   0.95046   1.000
    O343    O    0.14831   0.95046   0.62500   1.000
    O344    O    0.27622   0.95046   0.62500   1.000
    O345    O    0.34191   0.59944   0.94663   1.000
    O346    O    0.47371   0.51402   0.98671   1.000
    O347    O    0.62500   0.27622   0.14831   1.000
    O348    O    0.62500   0.14831   0.27622   1.000
    O349    O    0.66064   0.43297   0.43297   1.000
    O350    O    0.66064   0.43297   0.47342   1.000
    O351    O    0.61429   0.48826   0.44873   1.000
    O352    O    0.61429   0.44873   0.48826   1.000
    O353    O    0.34191   0.94663   0.11201   1.000
    O354    O    0.32549   0.92971   0.09543   1.000
    O355    O    0.29954   0.97378   0.10169   1.000
    O356    O    0.30337   0.90809   0.13799   1.000
    O357    O    0.27622   0.95046   0.14831   1.000
    O358    O    0.32029   0.92451   0.15457   1.000
    O359    O    0.22444   0.77629   0.73598   1.000
    O360    O    0.13799   0.90809   0.65056   1.000
    O361    O    0.90216   0.73236   0.90216   1.000
    O362    O    0.81703   0.77658   0.81703   1.000
    O363    O    0.09543   0.64937   0.92971   1.000
    O364    O    0.95412   0.72317   0.91510   1.000
    O365    O    0.62500   0.29954   0.97378   1.000
    O366    O    0.62500   0.29954   0.10169   1.000
    O367    O    0.92971   0.32549   0.09543   1.000
    O368    O    0.47371   0.98671   0.02556   1.000
    O369    O    0.94663   0.11201   0.34191   1.000
    O370    O    0.98671   0.02556   0.47371   1.000
    O371    O    0.29954   0.10169   0.62500   1.000
    O372    O    0.29954   0.97378   0.62500   1.000
    O373    O    0.95046   0.62500   0.27622   1.000
    O374    O    0.95046   0.62500   0.14831   1.000
    O375    O    0.26776   0.26776   0.75164   1.000
    O376    O    0.32185   0.32185   0.80177   1.000
    O377    O    0.44823   0.92815   0.92815   1.000
    O378    O    0.49836   0.98224   0.98224   1.000
    O379    O    0.64937   0.92971   0.32549   1.000
    O380    O    0.72317   0.91510   0.40762   1.000
    O381    O    0.22444   0.73598   0.26329   1.000
    O382    O    0.64937   0.32549   0.92971   1.000
    O383    O    0.59944   0.34191   0.94663   1.000
    O384    O    0.65056   0.30337   0.90809   1.000
    O385    O    0.60063   0.32029   0.92451   1.000
    O386    O    0.62500   0.27622   0.95046   1.000
    O387    O    0.92971   0.09543   0.32549   1.000
    O388    O    0.91509   0.95412   0.40762   1.000
    O389    O    0.63571   0.76174   0.80127   1.000
    O390    O    0.76174   0.63571   0.80127   1.000
    O391    O    0.49060   0.36189   0.32185   1.000
    O392    O    0.36189   0.49060   0.32185   1.000
    O393    O    0.32029   0.15457   0.92451   1.000
    O394    O    0.33490   0.29588   0.84238   1.000
    O395    O    0.32029   0.60063   0.92451   1.000
    O396    O    0.29954   0.62500   0.97378   1.000
    O397    O    0.30337   0.65056   0.90809   1.000
    O398    O    0.32549   0.64937   0.92971   1.000
    O399    O    0.44823   0.92815   0.69548   1.000
    O400    O    0.49836   0.98224   0.53717   1.000
    O401    O    0.72317   0.40762   0.91510   1.000
    O402    O    0.98671   0.47371   0.51402   1.000
    O403    O    0.94663   0.34191   0.59944   1.000
    O404    O    0.82566   0.36189   0.49060   1.000
    O405    O    0.82566   0.49060   0.36189   1.000
    O406    O    0.63571   0.80127   0.76174   1.000
    O407    O    0.63571   0.80127   0.80127   1.000
    O408    O    0.76174   0.80127   0.80127   1.000
    O409    O    0.34191   0.59944   0.11201   1.000
    O410    O    0.27622   0.62500   0.14831   1.000
    O411    O    0.29954   0.62500   0.10169   1.000
    O412    O    0.33490   0.52683   0.84238   1.000
    O413    O    0.98224   0.49836   0.98224   1.000
    O414    O    0.15457   0.60063   0.92451   1.000
    O415    O    0.29588   0.52683   0.84238   1.000
    O416    O    0.64937   0.92971   0.09543   1.000
    O417    O    0.72317   0.91510   0.95412   1.000
    O418    O    0.95046   0.27622   0.62500   1.000
    O419    O    0.95046   0.14831   0.62500   1.000
    O420    O    0.40762   0.91509   0.95412   1.000
    O421    O    0.73598   0.77629   0.26329   1.000
    O422    O    0.65056   0.90809   0.30337   1.000
    O423    O    0.02556   0.51402   0.47371   1.000
    O424    O    0.77629   0.26329   0.22444   1.000
    O425    O    0.90809   0.30337   0.13799   1.000
    O426    O    0.26329   0.77629   0.73598   1.000
    O427    O    0.26329   0.73598   0.77629   1.000
    O428    O    0.26776   0.75164   0.71283   1.000
    O429    O    0.26776   0.71283   0.75164   1.000
    O430    O    0.47371   0.51402   0.02556   1.000
    O431    O    0.29954   0.10169   0.97378   1.000
    O432    O    0.32029   0.15457   0.60063   1.000
    O433    O    0.33491   0.29588   0.52683   1.000
    O434    O    0.78668   0.34784   0.51764   1.000
    O435    O    0.84238   0.33491   0.52683   1.000
    O436    O    0.80177   0.32185   0.55452   1.000
    O437    O    0.84238   0.29588   0.52683   1.000
    O438    O    0.15457   0.92451   0.60063   1.000
    O439    O    0.10169   0.97378   0.62500   1.000
    O440    O    0.09543   0.92971   0.64937   1.000
    O441    O    0.11201   0.94663   0.59944   1.000
    O442    O    0.49060   0.32185   0.82566   1.000
    O443    O    0.36189   0.32185   0.82566   1.000
    O444    O    0.55452   0.32185   0.32185   1.000
    O445    O    0.71283   0.26776   0.26776   1.000
    O446    O    0.43297   0.43297   0.66064   1.000
    O447    O    0.34784   0.34784   0.78668   1.000
    O448    O    0.81703   0.58936   0.77658   1.000
    O449    O    0.90216   0.46332   0.73236   1.000
    O450    O    0.32185   0.55452   0.32185   1.000
    O451    O    0.26776   0.71283   0.26776   1.000
    O452    O    0.81703   0.58936   0.81703   1.000
    O453    O    0.82566   0.49060   0.32185   1.000
    O454    O    0.82566   0.36189   0.32185   1.000
    O455    O    0.98671   0.47371   0.02556   1.000
    O456    O    0.98671   0.51402   0.02556   1.000
    O457    O    0.02556   0.51402   0.98671   1.000
    O458    O    0.98224   0.53717   0.98224   1.000
    O459    O    0.02556   0.47371   0.98671   1.000
    O460    O    0.47371   0.02556   0.51402   1.000
    O461    O    0.34191   0.11201   0.59944   1.000
    O462    O    0.40762   0.72317   0.91510   1.000
    O463    O    0.44823   0.69548   0.92815   1.000
    O464    O    0.42434   0.75940   0.88811   1.000
    O465    O    0.42434   0.75940   0.92815   1.000
    O466    O    0.46332   0.73236   0.90216   1.000
    O467    O    0.10169   0.62500   0.97378   1.000
    O468    O    0.11201   0.59944   0.94663   1.000
    O469    O    0.77629   0.73598   0.26329   1.000
    O470    O    0.73598   0.77629   0.22444   1.000
    O471    O    0.77629   0.73598   0.22444   1.000
    O472    O    0.75164   0.71283   0.26776   1.000
    O473    O    0.71283   0.75164   0.26776   1.000
    O474    O    0.42434   0.92815   0.88811   1.000
    O475    O    0.46332   0.90216   0.90216   1.000
    O476    O    0.42434   0.88811   0.92815   1.000
    O477    O    0.51402   0.47371   0.98671   1.000
    O478    O    0.47342   0.43297   0.66064   1.000
    O479    O    0.44873   0.44873   0.61429   1.000
    O480    O    0.48826   0.44873   0.61429   1.000
    O481    O    0.95412   0.72317   0.40762   1.000
    O482    O    0.95046   0.14831   0.27622   1.000
    O483    O    0.97378   0.10169   0.29954   1.000
    O484    O    0.92451   0.15457   0.32029   1.000
    O485    O    0.53717   0.98224   0.98224   1.000
    O486    O    0.69548   0.92815   0.92815   1.000
    O487    O    0.91510   0.72317   0.40762   1.000
    O488    O    0.92815   0.75940   0.42434   1.000
    O489    O    0.88811   0.75940   0.42434   1.000
    O490    O    0.51402   0.02556   0.47371   1.000
    O491    O    0.59944   0.11201   0.34191   1.000
    O492    O    0.90216   0.90216   0.73236   1.000
    O493    O    0.95412   0.91510   0.72317   1.000
    O494    O    0.88811   0.92815   0.75940   1.000
    O495    O    0.92815   0.92815   0.69548   1.000
    O496    O    0.92815   0.88811   0.75940   1.000
    O497    O    0.81703   0.81703   0.77658   1.000
    O498    O    0.97378   0.62500   0.10169   1.000
    O499    O    0.51764   0.34784   0.78668   1.000
    O500    O    0.49060   0.36189   0.82566   1.000
    O501    O    0.52683   0.33491   0.84238   1.000
    O502    O    0.52683   0.29588   0.84238   1.000
    O503    O    0.22444   0.26329   0.77629   1.000
    O504    O    0.26329   0.22444   0.73598   1.000
    O505    O    0.26329   0.22444   0.77629   1.000
    O506    O    0.22444   0.26329   0.73598   1.000
    O507    O    0.36189   0.49060   0.82566   1.000
    O508    O    0.32185   0.55452   0.80177   1.000
    O509    O    0.90809   0.65056   0.30337   1.000
    O510    O    0.59944   0.94663   0.11201   1.000
    O511    O    0.65056   0.90809   0.13799   1.000
    O512    O    0.62500   0.95046   0.14831   1.000
    O513    O    0.62500   0.97378   0.10169   1.000
    O514    O    0.73598   0.22444   0.26329   1.000
    O515    O    0.65056   0.13799   0.30337   1.000
    O516    O    0.49060   0.82566   0.36189   1.000
    O517    O    0.36189   0.82566   0.49060   1.000
    O518    O    0.73598   0.26329   0.77629   1.000
    O519    O    0.60063   0.92451   0.32029   1.000
    O520    O    0.52683   0.84238   0.33491   1.000
    O521    O    0.10169   0.29954   0.62500   1.000
    O522    O    0.97378   0.29954   0.62500   1.000
    O523    O    0.92451   0.60063   0.32029   1.000
    O524    O    0.92971   0.64937   0.32549   1.000
    O525    O    0.94663   0.59944   0.34191   1.000
    O526    O    0.97378   0.62500   0.29954   1.000
    O527    O    0.29588   0.84238   0.52683   1.000
    O528    O    0.72317   0.95412   0.40762   1.000
    O529    O    0.64937   0.09543   0.32549   1.000
    O530    O    0.60063   0.32029   0.15457   1.000
    O531    O    0.59944   0.34191   0.11201   1.000
    O532    O    0.65056   0.30337   0.13799   1.000
    O533    O    0.64937   0.32549   0.09543   1.000
    O534    O    0.15457   0.32029   0.60063   1.000
    O535    O    0.29588   0.33491   0.52683   1.000
    O536    O    0.88811   0.92815   0.42434   1.000
    O537    O    0.95412   0.91510   0.40762   1.000
    O538    O    0.92815   0.88811   0.42434   1.000
    O539    O    0.90216   0.90216   0.46332   1.000
    O540    O    0.92815   0.92815   0.44823   1.000
    O541    O    0.52683   0.29588   0.33491   1.000
    O542    O    0.60063   0.15457   0.32029   1.000
    O543    O    0.51402   0.98671   0.02556   1.000
    O544    O    0.11201   0.34191   0.59944   1.000
    O545    O    0.09543   0.32549   0.64937   1.000
    O546    O    0.14831   0.27622   0.62500   1.000
    O547    O    0.13799   0.30337   0.65056   1.000
    O548    O    0.52683   0.33491   0.29588   1.000
    O549    O    0.51764   0.34784   0.34784   1.000
    O550    O    0.49060   0.32185   0.36189   1.000
    O551    O    0.69548   0.44823   0.92815   1.000
    O552    O    0.72317   0.40762   0.95412   1.000
    O553    O    0.75940   0.42434   0.88811   1.000
    O554    O    0.73236   0.46332   0.90216   1.000
    O555    O    0.75940   0.42434   0.92815   1.000
    O556    O    0.42434   0.92815   0.75940   1.000
    O557    O    0.59944   0.94663   0.34191   1.000
    O558    O    0.62500   0.95046   0.27622   1.000
    O559    O    0.62500   0.97378   0.29954   1.000
    O560    O    0.94663   0.34191   0.11201   1.000
    O561    O    0.98224   0.49836   0.53717   1.000
    O562    O    0.92815   0.44823   0.69548   1.000
    O563    O    0.30337   0.13799   0.90809   1.000
    O564    O    0.34191   0.11201   0.94663   1.000
    O565    O    0.27622   0.14831   0.95046   1.000
    O566    O    0.72317   0.95412   0.91510   1.000
    O567    O    0.64937   0.09543   0.92971   1.000
    O568    O    0.44873   0.44873   0.48826   1.000
    O569    O    0.92971   0.32549   0.64937   1.000
    O570    O    0.91510   0.40762   0.72317   1.000
    O571    O    0.88811   0.75940   0.92815   1.000
    O572    O    0.91509   0.72317   0.95412   1.000
    O573    O    0.92815   0.75940   0.88811   1.000
    O574    O    0.92815   0.69548   0.92815   1.000
    O575    O    0.75940   0.88811   0.92815   1.000
    O576    O    0.92971   0.64937   0.09543   1.000
    O577    O    0.32185   0.49060   0.36189   1.000
    O578    O    0.29588   0.52683   0.33491   1.000
    O579    O    0.58936   0.81703   0.81703   1.000
    O580    O    0.75940   0.92815   0.42434   1.000
    O581    O    0.47371   0.02556   0.98671   1.000
    O582    O    0.51402   0.02556   0.98671   1.000
    O583    O    0.80127   0.80127   0.76174   1.000
    O584    O    0.84238   0.52683   0.33491   1.000
    O585    O    0.80177   0.55452   0.32185   1.000
    O586    O    0.84238   0.52683   0.29588   1.000
    O587    O    0.90809   0.65056   0.13799   1.000
    O588    O    0.94663   0.59944   0.11201   1.000
    O589    O    0.92451   0.60063   0.15457   1.000
    O590    O    0.09543   0.92971   0.32549   1.000
    O591    O    0.47342   0.43297   0.43297   1.000
    O592    O    0.43297   0.43297   0.47342   1.000
    O593    O    0.44873   0.48826   0.44873   1.000
    O594    O    0.98671   0.51402   0.47371   1.000
    O595    O    0.02556   0.47371   0.51402   1.000
    O596    O    0.73236   0.90216   0.90216   1.000
    O597    O    0.75940   0.92815   0.88811   1.000
    O598    O    0.40762   0.91510   0.72317   1.000
    O599    O    0.40762   0.95412   0.72317   1.000
    O600    O    0.42434   0.88811   0.75940   1.000
    O601    O    0.46332   0.90216   0.73236   1.000
    O602    O    0.26329   0.77629   0.22444   1.000
    O603    O    0.30337   0.13799   0.65056   1.000
    O604    O    0.73236   0.90216   0.46332   1.000
    O605    O    0.75940   0.88811   0.42434   1.000
    O606    O    0.69548   0.92815   0.44823   1.000
    O607    O    0.84238   0.33491   0.29588   1.000
    O608    O    0.78668   0.34784   0.34784   1.000
    O609    O    0.80177   0.32185   0.32185   1.000
    O610    O    0.84238   0.29588   0.33491   1.000
    O611    O    0.92451   0.32029   0.15457   1.000
    O612    O    0.49060   0.82566   0.32185   1.000
    O613    O    0.55452   0.80177   0.32185   1.000
    O614    O    0.32185   0.36189   0.49060   1.000
    O615    O    0.51402   0.47371   0.02556   1.000
    O616    O    0.30337   0.90809   0.65056   1.000
    O617    O    0.97378   0.10169   0.62500   1.000
    O618    O    0.53717   0.49836   0.98224   1.000
    O619    O    0.29588   0.33491   0.84238   1.000
    O620    O    0.51402   0.98671   0.47371   1.000
    O621    O    0.47371   0.98671   0.51402   1.000
    O622    O    0.53717   0.98224   0.49836   1.000
    O623    O    0.27622   0.14831   0.62500   1.000
    O624    O    0.32549   0.09543   0.64937   1.000
    O625    O    0.33491   0.84238   0.52683   1.000
    O626    O    0.32185   0.82566   0.49060   1.000
    O627    O    0.32185   0.80177   0.55452   1.000
    O628    O    0.34784   0.34784   0.51764   1.000
    O629    O    0.58936   0.81703   0.77658   1.000
    O630    O    0.58936   0.77658   0.81703   1.000
    O631    O    0.80127   0.63571   0.80127   1.000
    O632    O    0.80127   0.63571   0.76174   1.000
    O633    O    0.77658   0.58936   0.81703   1.000
    O634    O    0.14831   0.95046   0.27622   1.000
    O635    O    0.73598   0.26329   0.22444   1.000
    O636    O    0.80127   0.76174   0.80127   1.000
    O637    O    0.77658   0.81703   0.81703   1.000
    O638    O    0.95412   0.40762   0.72317   1.000
    O639    O    0.92451   0.32029   0.60063   1.000
    O640    O    0.90809   0.30337   0.65056   1.000
    O641    O    0.62500   0.14831   0.95046   1.000
    O642    O    0.95046   0.27622   0.14831   1.000
    O643    O    0.02556   0.98671   0.47371   1.000
    O644    O    0.11201   0.94663   0.34191   1.000
    O645    O    0.44873   0.61429   0.44873   1.000
    O646    O    0.32029   0.92451   0.60063   1.000
    O647    O    0.34191   0.94663   0.59944   1.000
    O648    O    0.32549   0.92971   0.64937   1.000
    O649    O    0.02556   0.98671   0.51402   1.000
    O650    O    0.98224   0.98224   0.53717   1.000
    O651    O    0.98224   0.98224   0.49836   1.000
    O652    O    0.90809   0.13799   0.65056   1.000
    O653    O    0.92451   0.15457   0.60063   1.000
    O654    O    0.13799   0.90809   0.30337   1.000
    O655    O    0.22444   0.77629   0.26329   1.000
    O656    O    0.65056   0.13799   0.90809   1.000
    O657    O    0.62500   0.10169   0.97378   1.000
    O658    O    0.60063   0.15457   0.92451   1.000
    O659    O    0.59944   0.11201   0.94663   1.000
    O660    O    0.32185   0.80177   0.32185   1.000
    O661    O    0.26776   0.75164   0.26776   1.000
    O662    O    0.97378   0.29954   0.10169   1.000
    O663    O    0.36189   0.82566   0.32185   1.000
    O664    O    0.34784   0.78668   0.34784   1.000
    O665    O    0.43297   0.66064   0.43297   1.000
    O666    O    0.75164   0.26776   0.26776   1.000
    O667    O    0.36189   0.32185   0.49060   1.000
    O668    O    0.48826   0.61429   0.44873   1.000
    O669    O    0.32185   0.82566   0.36189   1.000
    O670    O    0.33490   0.84238   0.29588   1.000
    O671    O    0.92815   0.42434   0.75940   1.000
    O672    O    0.62500   0.10169   0.29954   1.000
    O673    O    0.75164   0.26776   0.71283   1.000
    O674    O    0.49836   0.53717   0.98224   1.000
    O675    O    0.10169   0.97378   0.29954   1.000
    O676    O    0.73598   0.22444   0.77629   1.000
    O677    O    0.77629   0.26329   0.73598   1.000
    O678    O    0.77629   0.22444   0.73598   1.000
    O679    O    0.88811   0.42434   0.75940   1.000
loop_
    _geom_bond_atom_site_label_1
    _geom_bond_atom_site_label_2
    _geom_bond_distance
    _geom_bond_site_symmetry_2
    _ccdc_geom_bond_type
    N4     O272      4.03049  1_545   S
    Zr224  O272      1.86920      .   S
    N4     O273      4.05964      .   S
    Zr235  O273      1.89026      .   S
    N8     O274      4.00119      .   S
    Zr249  O274      1.86520      .   S
    N8     O275      4.00100      .   S
    Zr252  O275      1.86509      .   S
    N5     O276      4.14159      .   S
    Zr208  O276      1.92661      .   S
    N5     O277      4.08536      .   S
    Zr261  O277      1.88750      .   S
    N14    O278      4.05809      .   S
    Zr245  O278      1.88634      .   S
    N14    O279      4.11891      .   S
    Zr210  O279      1.91835      .   S
    N28    O280      4.05804      .   S
    Zr250  O280      1.88704      .   S
    N28    O281      4.02540      .   S
    Zr219  O281      1.86454      .   S
    N29    O282      4.07989      .   S
    Zr219  O282      1.89505      .   S
    N29    O283      4.07989      .   S
    Zr247  O283      1.89505      .   S
    Zr253  O284      1.88704      .   S
    N66    O284      4.05804      .   S
    Zr253  O285      1.86512      .   S
    N157   O285      4.00108      .   S
    Zr253  O286      1.86520      .   S
    N83    O286      4.00119      .   S
    Zr253  O287      1.88704      .   S
    N67    O287      4.05804      .   S
    Zr253  O288      1.88708      .   S
    N68    O288      4.05806      .   S
    Zr253  O289      1.86512      .   S
    N166   O289      4.00108      .   S
    N54    O290      4.08524      .   S
    Zr239  O290      1.88750  1_565   S
    N54    O291      4.14166      .   S
    Zr265  O291      1.92668      .   S
    N193   O292      4.11892      .   S
    Zr248  O292      1.91832      .   S
    N193   O293      4.05809      .   S
    Zr238  O293      1.88634      .   S
    N63    O294      4.00108      .   S
    Zr250  O294      1.86512      .   S
    N63    O295      4.00108      .   S
    Zr251  O295      1.86512      .   S
    N66    O296      4.02540      .   S
    Zr236  O296      1.86454      .   S
    N77    O297      4.05966      .   S
    Zr226  O297      1.89023      .   S
    N77    O298      4.03049  1_554   S
    Zr221  O298      1.86920      .   S
    N70    O299      4.08529      .   S
    Zr262  O299      1.88750      .   S
    N70    O300      4.14163      .   S
    Zr218  O300      1.92665      .   S
    Zr217  O301      1.92668      .   S
    N89    O301      4.14166      .   S
    Zr217  O302      1.92665      .   S
    N94    O302      4.14163      .   S
    Zr217  O303      1.89023      .   S
    N134   O303      4.05966      .   S
    Zr217  O304      1.88599      .   S
    N61    O304      4.08374      .   S
    Zr217  O305      1.89025      .   S
    N41    O305      4.05964      .   S
    Zr217  O306      1.88603      .   S
    N161   O306      4.08375      .   S
    N62    O307      4.14166      .   S
    Zr226  O307      1.92668      .   S
    N62    O308      4.08524      .   S
    Zr237  O308      1.88750      .   S
    N34    O309      4.03049  1_545   S
    Zr267  O309      1.86920      .   S
    N34    O310      4.05964      .   S
    Zr265  O310      1.89025      .   S
    N76    O311      4.05964      .   S
    Zr226  O311      1.89025      .   S
    N76    O312      4.03049      .   S
    Zr270  O312      1.86920      .   S
    N95    O313      4.11892      .   S
    Zr236  O313      1.91832      .   S
    N95    O314      4.05809      .   S
    Zr243  O314      1.88634      .   S
    N80    O315      4.08373      .   S
    Zr220  O315      1.88597      .   S
    N80    O316      4.08375      .   S
    Zr218  O316      1.88603      .   S
    N44    O317      4.05966      .   S
    Zr216  O317      1.89023      .   S
    N44    O318      4.03049      .   S
    Zr207  O318      1.86920      .   S
    N45    O319      4.02540      .   S
    Zr207  O319      1.86454      .   S
    N45    O320      4.05804      .   S
    Zr251  O320      1.88704      .   S
    N85    O321      4.02540      .   S
    Zr212  O321      1.86454      .   S
    N85    O322      4.05804      .   S
    Zr251  O322      1.88704      .   S
    N91    O323      4.03049      .   S
    Zr205  O323      1.86920      .   S
    N91    O324      4.05964      .   S
    Zr204  O324      1.89026      .   S
    N86    O325      4.02538      .   S
    Zr270  O325      1.86463      .   S
    N86    O326      4.05806      .   S
    Zr252  O326      1.88708      .   S
    Zr228  O327      1.86920      .   S
    N116   O327      4.03049  1_554   S
    Zr228  O328      1.91820      .   S
    N176   O328      4.11905      .   S
    Zr228  O329      1.86457      .   S
    N175   O329      4.02539      .   S
    Zr228  O330      1.89505      .   S
    N187   O330      4.07989      .   S
    Zr228  O331      1.86920      .   S
    N201   O331      4.03049  1_455   S
    Zr228  O332      1.89505      .   S
    N152   O332      4.07989      .   S
    N10    O333      4.07989      .   S
    Zr211  O333      1.89505      .   S
    N10    O334      4.07989      .   S
    Zr209  O334      1.89505      .   S
    N90    O335      4.05804      .   S
    Zr249  O335      1.88704      .   S
    N90    O336      4.02540      .   S
    Zr230  O336      1.86454      .   S
    Zr271  O337      1.92661      .   S
    N191   O337      4.14159      .   S
    Zr271  O338      1.89026      .   S
    N24    O338      4.05964      .   S
    Zr271  O339      1.88600      .   S
    N181   O339      4.08374  1_554   S
    Zr271  O340      1.89026      .   S
    N201   O340      4.05964      .   S
    Zr271  O341      1.92661      .   S
    N196   O341      4.14159      .   S
    Zr271  O342      1.88600      .   S
    N0     O342      4.08374      .   S
    N73    O343      4.08375      .   S
    Zr263  O343      1.88603      .   S
    N73    O344      4.08373      .   S
    Zr264  O344      1.88597      .   S
    N93    O345      4.14160      .   S
    Zr220  O345      1.92662      .   S
    N93    O346      4.08537      .   S
    Zr240  O346      1.88750      .   S
    N102   O347      4.08374      .   S
    Zr266  O347      1.88599      .   S
    N102   O348      4.08374      .   S
    Zr234  O348      1.88599      .   S
    Zr249  O349      1.88708      .   S
    N9     O349      4.05806      .   S
    Zr249  O350      1.88704      .   S
    N84    O350      4.05804      .   S
    Zr249  O351      1.86512      .   S
    N40    O351      4.00108      .   S
    Zr249  O352      1.86512      .   S
    N148   O352      4.00108      .   S
    Zr223  O353      1.92661      .   S
    N119   O353      4.14159      .   S
    Zr223  O354      1.89026      .   S
    N117   O354      4.05964      .   S
    Zr223  O355      1.88600      .   S
    N137   O355      4.08374  1_545   S
    Zr223  O356      1.92661      .   S
    N98    O356      4.14159      .   S
    Zr223  O357      1.88600      .   S
    N37    O357      4.08374      .   S
    Zr223  O358      1.89026      .   S
    N71    O358      4.05964      .   S
    N65    O359      4.08529      .   S
    Zr262  O359      1.88750      .   S
    N65    O360      4.14163      .   S
    Zr263  O360      1.92665      .   S
    N107   O361      4.02538      .   S
    Zr222  O361      1.86463      .   S
    N107   O362      4.05806      .   S
    Zr254  O362      1.88708      .   S
    N112   O363      4.05964      .   S
    Zr218  O363      1.89025      .   S
    N112   O364      4.03049  1_455   S
    Zr222  O364      1.86920      .   S
    N127   O365      4.08373  1_554   S
    Zr246  O365      1.88597      .   S
    N127   O366      4.08375      .   S
    Zr266  O366      1.88603      .   S
    N116   O367      4.05964      .   S
    Zr227  O367      1.89026      .   S
    N119   O368      4.08536      .   S
    Zr244  O368      1.88750  1_556   S
    N81    O369      4.14159      .   S
    Zr208  O369      1.92661      .   S
    N81    O370      4.08536      .   S
    Zr239  O370      1.88750  1_565   S
    N128   O371      4.08375      .   S
    Zr269  O371      1.88603      .   S
    N128   O372      4.08373  1_545   S
    Zr264  O372      1.88597      .   S
    N121   O373      4.08373      .   S
    Zr229  O373      1.88597      .   S
    N121   O374      4.08375      .   S
    Zr225  O374      1.88603      .   S
    N25    O375      4.05809      .   S
    Zr245  O375      1.88634      .   S
    N25    O376      4.11905      .   S
    Zr247  O376      1.91820      .   S
    N139   O377      4.11905      .   S
    Zr224  O377      1.91820      .   S
    N139   O378      4.05809      .   S
    Zr244  O378      1.88634      .   S
    N133   O379      4.05968      .   S
    Zr206  O379      1.89022      .   S
    N133   O380      4.03049      .   S
    Zr232  O380      1.86920      .   S
    N89    O381      4.08524      .   S
    Zr237  O381      1.88750      .   S
    Zr246  O382      1.89022      .   S
    N150   O382      4.05968      .   S
    Zr246  O383      1.92662      .   S
    N47    O383      4.14160      .   S
    Zr246  O384      1.92662      .   S
    N198   O384      4.14160      .   S
    Zr246  O385      1.89022      .   S
    N173   O385      4.05968      .   S
    Zr246  O386      1.88597      .   S
    N46    O386      4.08373      .   S
    N7     O387      4.05964      .   S
    Zr208  O387      1.89026      .   S
    N7     O388      4.03049  1_545   S
    Zr215  O388      1.86920      .   S
    N143   O389      4.00108      .   S
    Zr256  O389      1.86512      .   S
    N143   O390      4.00108      .   S
    Zr255  O390      1.86512      .   S
    N126   O391      4.07989      .   S
    Zr231  O391      1.89505      .   S
    N126   O392      4.07989      .   S
    Zr270  O392      1.89505      .   S
    N147   O393      4.05964      .   S
    Zr235  O393      1.89026      .   S
    N147   O394      4.03049      .   S
    Zr247  O394      1.86920      .   S
    Zr220  O395      1.89022      .   S
    N159   O395      4.05968      .   S
    Zr220  O396      1.88597      .   S
    N92    O396      4.08373  1_554   S
    Zr220  O397      1.92662      .   S
    N183   O397      4.14160      .   S
    Zr220  O398      1.89022      .   S
    N79    O398      4.05968      .   S
    N138   O399      4.11892      .   S
    Zr233  O399      1.91832      .   S
    N138   O400      4.05809      .   S
    Zr241  O400      1.88634      .   S
    N150   O401      4.03049      .   S
    Zr268  O401      1.86920      .   S
    N57    O402      4.08537      .   S
    Zr243  O402      1.88750      .   S
    N57    O403      4.14160      .   S
    Zr213  O403      1.92662      .   S
    N135   O404      4.07989      .   S
    Zr211  O404      1.89505      .   S
    N135   O405      4.07989      .   S
    Zr230  O405      1.89505      .   S
    N157   O406      4.00108      .   S
    Zr256  O406      1.86512      .   S
    N162   O407      4.00119      .   S
    Zr256  O407      1.86520      .   S
    N162   O408      4.00100      .   S
    Zr254  O408      1.86509      .   S
    Zr226  O409      1.92665      .   S
    N179   O409      4.14163      .   S
    Zr226  O410      1.88599      .   S
    N61    O410      4.08374      .   S
    Zr226  O411      1.88603      .   S
    N92    O411      4.08375      .   S
    N159   O412      4.03049      .   S
    Zr219  O412      1.86920      .   S
    N176   O413      4.05809      .   S
    Zr242  O413      1.88634      .   S
    N163   O414      4.05966      .   S
    Zr218  O414      1.89023      .   S
    N163   O415      4.03049      .   S
    Zr219  O415      1.86920      .   S
    N64    O416      4.05964      .   S
    Zr216  O416      1.89025      .   S
    N64    O417      4.03049  1_554   S
    Zr259  O417      1.86920      .   S
    N174   O418      4.08373      .   S
    Zr213  O418      1.88597      .   S
    N174   O419      4.08375      .   S
    Zr265  O419      1.88603      .   S
    N117   O420      4.03049  1_554   S
    Zr224  O420      1.86920      .   S
    N164   O421      4.08537      .   S
    Zr260  O421      1.88750      .   S
    N164   O422      4.14160      .   S
    Zr206  O422      1.92662      .   S
    N94    O423      4.08529      .   S
    Zr243  O423      1.88750  1_655   S
    N100   O424      4.08536      .   S
    Zr261  O424      1.88750      .   S
    N100   O425      4.14159      .   S
    Zr227  O425      1.92661      .   S
    Zr262  O426      1.88750      .   S
    N30    O426      4.08537      .   S
    Zr262  O427      1.88750      .   S
    N183   O427      4.08537      .   S
    Zr262  O428      1.88634      .   S
    N31    O428      4.05809      .   S
    Zr262  O429      1.88634      .   S
    N182   O429      4.05809      .   S
    N179   O430      4.08529      .   S
    Zr240  O430      1.88750  1_556   S
    N137   O431      4.08374  1_554   S
    Zr235  O431      1.88600      .   S
    N13    O432      4.05964      .   S
    Zr269  O432      1.89025      .   S
    N13    O433      4.03049      .   S
    Zr210  O433      1.86920      .   S
    Zr211  O434      1.86454      .   S
    N84    O434      4.02540      .   S
    Zr211  O435      1.86920      .   S
    N53    O435      4.03049      .   S
    Zr211  O436      1.91832      .   S
    N186   O436      4.11892      .   S
    Zr211  O437      1.86920      .   S
    N51    O437      4.03049      .   S
    Zr263  O438      1.89023      .   S
    N69    O438      4.05966      .   S
    Zr263  O439      1.88599      .   S
    N149   O439      4.08374  1_545   S
    Zr263  O440      1.89025      .   S
    N50    O440      4.05964      .   S
    Zr263  O441      1.92668      .   S
    N32    O441      4.14166      .   S
    N136   O442      4.07989      .   S
    Zr248  O442      1.89505      .   S
    N136   O443      4.07989      .   S
    Zr247  O443      1.89505      .   S
    N123   O444      4.11891      .   S
    Zr231  O444      1.91835      .   S
    N123   O445      4.05809      .   S
    Zr261  O445      1.88634      .   S
    N122   O446      4.05806      .   S
    Zr250  O446      1.88708      .   S
    N122   O447      4.02539      .   S
    Zr247  O447      1.86457      .   S
    N184   O448      4.05804      .   S
    Zr255  O448      1.88704      .   S
    N184   O449      4.02540      .   S
    Zr214  O449      1.86454      .   S
    N104   O450      4.11891      .   S
    Zr270  O450      1.91835      .   S
    N104   O451      4.05809      .   S
    Zr237  O451      1.88634      .   S
    N175   O452      4.05806      .   S
    Zr255  O452      1.88708      .   S
    N130   O453      4.07989      .   S
    Zr230  O453      1.89505      .   S
    N130   O454      4.07989      .   S
    Zr209  O454      1.89505      .   S
    Zr242  O455      1.88750  1_556   S
    N118   O455      4.08536      .   S
    Zr242  O456      1.88750  1_556   S
    N110   O456      4.08524      .   S
    Zr242  O457      1.88750  1_655   S
    N146   O457      4.08524      .   S
    Zr242  O458      1.88634      .   S
    N111   O458      4.05809      .   S
    Zr242  O459      1.88750  1_655   S
    N196   O459      4.08536      .   S
    N58    O460      4.08529      .   S
    Zr241  O460      1.88750  1_565   S
    N58    O461      4.14163      .   S
    Zr269  O461      1.92665      .   S
    Zr221  O462      1.86920      .   S
    N79    O462      4.03049      .   S
    Zr221  O463      1.91832      .   S
    N78    O463      4.11892      .   S
    Zr221  O464      1.89505      .   S
    N145   O464      4.07989      .   S
    Zr221  O465      1.89505      .   S
    N141   O465      4.07989      .   S
    Zr221  O466      1.86454      .   S
    N144   O466      4.02540      .   S
    Zr218  O467      1.88599      .   S
    N109   O467      4.08374  1_554   S
    Zr218  O468      1.92668      .   S
    N146   O468      4.14166      .   S
    Zr260  O469      1.88750      .   S
    N113   O469      4.08537      .   S
    Zr260  O470      1.88750      .   S
    N38    O470      4.08529      .   S
    Zr260  O471      1.88750      .   S
    N99    O471      4.08529      .   S
    Zr260  O472      1.88634      .   S
    N131   O472      4.05809      .   S
    Zr260  O473      1.88634      .   S
    N39    O473      4.05809      .   S
    Zr224  O474      1.89505      .   S
    N142   O474      4.07989      .   S
    Zr224  O475      1.86457      .   S
    N140   O475      4.02539      .   S
    Zr224  O476      1.89505      .   S
    N141   O476      4.07989      .   S
    N47    O477      4.08537      .   S
    Zr240  O477      1.88750      .   S
    Zr250  O478      1.88704      .   S
    N177   O478      4.05804      .   S
    Zr250  O479      1.86520      .   S
    N17    O479      4.00119      .   S
    Zr250  O480      1.86512      .   S
    N148   O480      4.00108      .   S
    N134   O481      4.03049  1_455   S
    Zr236  O481      1.86920      .   S
    Zr208  O482      1.88600      .   S
    N11    O482      4.08374      .   S
    Zr208  O483      1.88600      .   S
    N74    O483      4.08374  1_455   S
    Zr208  O484      1.89026      .   S
    N2     O484      4.05964      .   S
    N197   O485      4.05809      .   S
    Zr244  O485      1.88634      .   S
    N197   O486      4.11891      .   S
    Zr259  O486      1.91835      .   S
    Zr236  O487      1.86920      .   S
    N96    O487      4.03049      .   S
    Zr236  O488      1.89505      .   S
    N88    O488      4.07989      .   S
    Zr236  O489      1.89505      .   S
    N160   O489      4.07989      .   S
    N169   O490      4.08529      .   S
    Zr241  O490      1.88750  1_565   S
    N169   O491      4.14163      .   S
    Zr234  O491      1.92665      .   S
    Zr267  O492      1.86463      .   S
    N203   O492      4.02538      .   S
    Zr267  O493      1.86920      .   S
    N50    O493      4.03049  1_455   S
    Zr267  O494      1.89505      .   S
    N199   O494      4.07989      .   S
    Zr267  O495      1.91835      .   S
    N33    O495      4.11891      .   S
    Zr267  O496      1.89505      .   S
    N154   O496      4.07989      .   S
    N203   O497      4.05806      .   S
    Zr254  O497      1.88708      .   S
    N109   O498      4.08374  1_455   S
    Zr225  O498      1.88599      .   S
    Zr248  O499      1.86454      .   S
    N177   O499      4.02540      .   S
    Zr248  O500      1.89505      .   S
    N178   O500      4.07989      .   S
    Zr248  O501      1.86920      .   S
    N173   O501      4.03049      .   S
    Zr248  O502      1.86920      .   S
    N194   O502      4.03049      .   S
    Zr245  O503      1.88750      .   S
    N191   O503      4.08536      .   S
    Zr245  O504      1.88750      .   S
    N129   O504      4.08524      .   S
    Zr245  O505      1.88750      .   S
    N12    O505      4.08536      .   S
    Zr245  O506      1.88750      .   S
    N15    O506      4.08524      .   S
    Zr219  O507      1.89505      .   S
    N178   O507      4.07989      .   S
    Zr219  O508      1.91832      .   S
    N182   O508      4.11892      .   S
    N113   O509      4.14160      .   S
    Zr229  O509      1.92662      .   S
    Zr216  O510      1.92668      .   S
    N120   O510      4.14166      .   S
    Zr216  O511      1.92665      .   S
    N38    O511      4.14163      .   S
    Zr216  O512      1.88603      .   S
    N49    O512      4.08375      .   S
    Zr216  O513      1.88599      .   S
    N172   O513      4.08374  1_545   S
    N59    O514      4.08524      .   S
    Zr261  O514      1.88750      .   S
    N59    O515      4.14166      .   S
    Zr234  O515      1.92668      .   S
    N60    O516      4.07989      .   S
    Zr207  O516      1.89505      .   S
    N60    O517      4.07989      .   S
    Zr212  O517      1.89505      .   S
    N198   O518      4.08537      .   S
    Zr238  O518      1.88750      .   S
    N27    O519      4.05968      .   S
    Zr206  O519      1.89022      .   S
    N27    O520      4.03049      .   S
    Zr207  O520      1.86920      .   S
    N22    O521      4.08375      .   S
    Zr257  O521      1.88603      .   S
    N22    O522      4.08373  1_455   S
    Zr213  O522      1.88597      .   S
    Zr229  O523      1.89022      .   S
    N170   O523      4.05968      .   S
    Zr229  O524      1.89022      .   S
    N96    O524      4.05968      .   S
    Zr229  O525      1.92662      .   S
    N97    O525      4.14160      .   S
    Zr229  O526      1.88597      .   S
    N161   O526      4.08373  1_455   S
    N69    O527      4.03049      .   S
    Zr212  O527      1.86920      .   S
    N132   O528      4.03049  1_545   S
    Zr232  O528      1.86920      .   S
    N132   O529      4.05966      .   S
    Zr234  O529      1.89023      .   S
    Zr266  O530      1.89025      .   S
    N43    O530      4.05964      .   S
    Zr266  O531      1.92665      .   S
    N171   O531      4.14163      .   S
    Zr266  O532      1.92668      .   S
    N101   O532      4.14166      .   S
    Zr266  O533      1.89023      .   S
    N114   O533      4.05966      .   S
    N20    O534      4.05964      .   S
    Zr257  O534      1.89025      .   S
    N20    O535      4.03049      .   S
    Zr210  O535      1.86920      .   S
    Zr215  O536      1.89505      .   S
    N103   O536      4.07989      .   S
    Zr215  O537      1.86920      .   S
    N72    O537      4.03049  1_455   S
    Zr215  O538      1.89505      .   S
    N88    O538      4.07989      .   S
    Zr215  O539      1.86457      .   S
    N68    O539      4.02539      .   S
    Zr215  O540      1.91820      .   S
    N82    O540      4.11905      .   S
    N124   O541      4.03049      .   S
    Zr231  O541      1.86920      .   S
    N124   O542      4.05964      .   S
    Zr234  O542      1.89025      .   S
    N120   O543      4.08524      .   S
    Zr244  O543      1.88750  1_556   S
    Zr257  O544      1.92665      .   S
    N55    O544      4.14163      .   S
    Zr257  O545      1.89023      .   S
    N21    O545      4.05966      .   S
    Zr257  O546      1.88599      .   S
    N18    O546      4.08374      .   S
    Zr257  O547      1.92668      .   S
    N15    O547      4.14166      .   S
    Zr231  O548      1.86920      .   S
    N43    O548      4.03049      .   S
    Zr231  O549      1.86463      .   S
    N125   O549      4.02538      .   S
    Zr231  O550      1.89505      .   S
    N23    O550      4.07989      .   S
    Zr268  O551      1.91832      .   S
    N48    O551      4.11892      .   S
    Zr268  O552      1.86920      .   S
    N114   O552      4.03049  1_554   S
    Zr268  O553      1.89505      .   S
    N188   O553      4.07989      .   S
    Zr268  O554      1.86454      .   S
    N151   O554      4.02540      .   S
    Zr268  O555      1.89505      .   S
    N152   O555      4.07989      .   S
    N142   O556      4.07989      .   S
    Zr233  O556      1.89505      .   S
    Zr206  O557      1.92662      .   S
    N168   O557      4.14160      .   S
    Zr206  O558      1.88597      .   S
    N49    O558      4.08373      .   S
    Zr206  O559      1.88597      .   S
    N165   O559      4.08373  1_545   S
    N118   O560      4.14159      .   S
    Zr227  O560      1.92661      .   S
    N105   O561      4.05809      .   S
    Zr243  O561      1.88634      .   S
    N105   O562      4.11892      .   S
    Zr214  O562      1.91832      .   S
    Zr235  O563      1.92661      .   S
    N12    O563      4.14159      .   S
    Zr235  O564      1.92661      .   S
    N195   O564      4.14159      .   S
    Zr235  O565      1.88600      .   S
    N0     O565      4.08374      .   S
    N202   O566      4.03049  1_545   S
    Zr259  O566      1.86920      .   S
    N202   O567      4.05964      .   S
    Zr258  O567      1.89025      .   S
    N17    O568      4.00100      .   S
    Zr252  O568      1.86509      .   S
    N106   O569      4.05968      .   S
    Zr213  O569      1.89022      .   S
    N106   O570      4.03049      .   S
    Zr214  O570      1.86920      .   S
    Zr222  O571      1.89505      .   S
    N108   O571      4.07989      .   S
    Zr222  O572      1.86920      .   S
    N115   O572      4.03049  1_554   S
    Zr222  O573      1.89505      .   S
    N154   O573      4.07989      .   S
    Zr222  O574      1.91835      .   S
    N111   O574      4.11891      .   S
    N108   O575      4.07989      .   S
    Zr259  O575      1.89505      .   S
    N115   O576      4.05964      .   S
    Zr225  O576      1.89025      .   S
    Zr270  O577      1.89505      .   S
    N19    O577      4.07989      .   S
    Zr270  O578      1.86920      .   S
    N41    O578      4.03049      .   S
    N140   O579      4.05806      .   S
    Zr256  O579      1.88708      .   S
    N103   O580      4.07989      .   S
    Zr232  O580      1.89505      .   S
    Zr244  O581      1.88750  1_565   S
    N195   O581      4.08536      .   S
    Zr244  O582      1.88750  1_565   S
    N200   O582      4.08524      .   S
    N83    O583      4.00100      .   S
    Zr254  O583      1.86509      .   S
    Zr230  O584      1.86920      .   S
    N170   O584      4.03049      .   S
    Zr230  O585      1.91832      .   S
    N131   O585      4.11892      .   S
    Zr230  O586      1.86920      .   S
    N3     O586      4.03049      .   S
    Zr225  O587      1.92665      .   S
    N99    O587      4.14163      .   S
    Zr225  O588      1.92668      .   S
    N110   O588      4.14166      .   S
    Zr225  O589      1.89023      .   S
    N3     O589      4.05966      .   S
    N72    O590      4.05964      .   S
    Zr204  O590      1.89026      .   S
    Zr252  O591      1.88708      .   S
    N125   O591      4.05806      .   S
    Zr252  O592      1.88708      .   S
    N16    O592      4.05806      .   S
    Zr252  O593      1.86509      .   S
    N42    O593      4.00100      .   S
    Zr243  O594      1.88750      .   S
    N97    O594      4.08537      .   S
    Zr243  O595      1.88750  1_655   S
    N55    O595      4.08529      .   S
    Zr259  O596      1.86463      .   S
    N190   O596      4.02538      .   S
    Zr259  O597      1.89505      .   S
    N199   O597      4.07989      .   S
    Zr233  O598      1.86920      .   S
    N155   O598      4.03049      .   S
    Zr233  O599      1.86920      .   S
    N156   O599      4.03049  1_545   S
    Zr233  O600      1.89505      .   S
    N145   O600      4.07989      .   S
    Zr233  O601      1.86454      .   S
    N158   O601      4.02540      .   S
    N98    O602      4.08536      .   S
    Zr237  O602      1.88750      .   S
    N129   O603      4.14166      .   S
    Zr269  O603      1.92668      .   S
    Zr232  O604      1.86454      .   S
    N67    O604      4.02540      .   S
    Zr232  O605      1.89505      .   S
    N160   O605      4.07989      .   S
    Zr232  O606      1.91832      .   S
    N180   O606      4.11892      .   S
    Zr209  O607      1.86920      .   S
    N6     O607      4.03049      .   S
    Zr209  O608      1.86457      .   S
    N9     O608      4.02539      .   S
    Zr209  O609      1.91820      .   S
    N1     O609      4.11905      .   S
    Zr209  O610      1.86920      .   S
    N2     O610      4.03049      .   S
    N6     O611      4.05964      .   S
    Zr227  O611      1.89026      .   S
    Zr207  O612      1.89505      .   S
    N26    O612      4.07989      .   S
    Zr207  O613      1.91832      .   S
    N39    O613      4.11892      .   S
    N19    O614      4.07989      .   S
    Zr210  O614      1.89505      .   S
    N171   O615      4.08529      .   S
    Zr240  O615      1.88750  1_556   S
    N30    O616      4.14160      .   S
    Zr264  O616      1.92662      .   S
    N149   O617      4.08374  1_455   S
    Zr265  O617      1.88599      .   S
    N48    O618      4.05809      .   S
    Zr240  O618      1.88634      .   S
    N24    O619      4.03049      .   S
    Zr247  O619      1.86920      .   S
    Zr241  O620      1.88750      .   S
    N168   O620      4.08537      .   S
    Zr241  O621      1.88750      .   S
    N56    O621      4.08537      .   S
    Zr241  O622      1.88634      .   S
    N180   O622      4.05809      .   S
    Zr269  O623      1.88599      .   S
    N18    O623      4.08374      .   S
    Zr269  O624      1.89023      .   S
    N156   O624      4.05966      .   S
    Zr212  O625      1.86920      .   S
    N52    O625      4.03049      .   S
    Zr212  O626      1.89505      .   S
    N36    O626      4.07989      .   S
    Zr212  O627      1.91832      .   S
    N31    O627      4.11892      .   S
    N16    O628      4.02538      .   S
    Zr210  O628      1.86463      .   S
    Zr256  O629      1.88704      .   S
    N158   O629      4.05804      .   S
    Zr256  O630      1.88704      .   S
    N144   O630      4.05804      .   S
    Zr255  O631      1.86520      .   S
    N153   O631      4.00119      .   S
    Zr255  O632      1.86512      .   S
    N166   O632      4.00108      .   S
    Zr255  O633      1.88704      .   S
    N151   O633      4.05804      .   S
    N37    O634      4.08374      .   S
    Zr204  O634      1.88600      .   S
    N101   O635      4.08524      .   S
    Zr261  O635      1.88750      .   S
    Zr254  O636      1.86509      .   S
    N153   O636      4.00100      .   S
    Zr254  O637      1.88708      .   S
    N190   O637      4.05806      .   S
    N21    O638      4.03049  1_455   S
    Zr214  O638      1.86920      .   S
    Zr213  O639      1.89022      .   S
    N53    O639      4.05968      .   S
    Zr213  O640      1.92662      .   S
    N189   O640      4.14160      .   S
    N46    O641      4.08375      .   S
    Zr258  O641      1.88603      .   S
    N11    O642      4.08374      .   S
    Zr227  O642      1.88600      .   S
    N167   O643      4.08536      .   S
    Zr239  O643      1.88750  1_655   S
    N167   O644      4.14159      .   S
    Zr204  O644      1.92661      .   S
    N42    O645      4.00119      .   S
    Zr251  O645      1.86520      .   S
    Zr264  O646      1.89022      .   S
    N52    O646      4.05968      .   S
    Zr264  O647      1.92662      .   S
    N56    O647      4.14160      .   S
    Zr264  O648      1.89022      .   S
    N155   O648      4.05968      .   S
    Zr239  O649      1.88750  1_655   S
    N32    O649      4.08524      .   S
    Zr239  O650      1.88634      .   S
    N33    O650      4.05809      .   S
    Zr239  O651      1.88634      .   S
    N82    O651      4.05809      .   S
    Zr265  O652      1.92665      .   S
    N185   O652      4.14163      .   S
    Zr265  O653      1.89023      .   S
    N51    O653      4.05966      .   S
    N75    O654      4.14159      .   S
    Zr204  O654      1.92661      .   S
    N75    O655      4.08536      .   S
    Zr237  O655      1.88750      .   S
    Zr258  O656      1.92665      .   S
    N192   O656      4.14163      .   S
    Zr258  O657      1.88599      .   S
    N172   O657      4.08374  1_554   S
    Zr258  O658      1.89023      .   S
    N194   O658      4.05966      .   S
    Zr258  O659      1.92668      .   S
    N200   O659      4.14166      .   S
    N87    O660      4.11905      .   S
    Zr205  O660      1.91820      .   S
    N87    O661      4.05809      .   S
    Zr237  O661      1.88634      .   S
    N181   O662      4.08374  1_455   S
    Zr227  O662      1.88600      .   S
    N26    O663      4.07989      .   S
    Zr205  O663      1.89505      .   S
    N35    O664      4.02539      .   S
    Zr205  O664      1.86457      .   S
    N35    O665      4.05806      .   S
    Zr251  O665      1.88708      .   S
    Zr261  O666      1.88634      .   S
    N1     O666      4.05809      .   S
    N23    O667      4.07989      .   S
    Zr210  O667      1.89505      .   S
    N40    O668      4.00108      .   S
    Zr251  O668      1.86512      .   S
    Zr205  O669      1.89505      .   S
    N36    O669      4.07989      .   S
    Zr205  O670      1.86920      .   S
    N71    O670      4.03049      .   S
    N187   O671      4.07989      .   S
    Zr214  O671      1.89505      .   S
    N165   O672      4.08375      .   S
    Zr234  O672      1.88603      .   S
    N186   O673      4.05809      .   S
    Zr238  O673      1.88634      .   S
    N78    O674      4.05809      .   S
    Zr240  O674      1.88634      .   S
    Zr204  O675      1.88600      .   S
    N74    O675      4.08374  1_545   S
    N192   O676      4.08529      .   S
    Zr238  O676      1.88750      .   S
    N189   O677      4.08537      .   S
    Zr238  O677      1.88750      .   S
    N185   O678      4.08529      .   S
    Zr238  O678      1.88750      .   S
    N188   O679      4.07989      .   S
    Zr214  O679      1.89505      .   S
