# CIF file generated by openbabel 2.4.90, see http://openbabel.sf.net
data_I
_chemical_name_common ''
_cell_length_a 62.8399
_cell_length_b 62.8399
_cell_length_c 62.8399
_cell_angle_alpha 60
_cell_angle_beta 60
_cell_angle_gamma 60
_space_group_name_H-M_alt 'P 1'
_space_group_name_Hall 'P 1'
loop_
    _symmetry_equiv_pos_as_xyz
    x,y,z
loop_
    _atom_site_label
    _atom_site_type_symbol
    _atom_site_fract_x
    _atom_site_fract_y
    _atom_site_fract_z
    _atom_site_occupancy
    N0      N    0.20562   0.20562   0.96380   1.000
    N1      N    0.76792   0.29883   0.29883   1.000
    N2      N    0.88792   0.22227   0.33589   1.000
    N3      N    0.88792   0.55392   0.22227   1.000
    N4      N    0.36208   0.02773   0.91411   1.000
    N5      N    0.84016   0.17314   0.28583   1.000
    N6      N    0.88792   0.33589   0.22227   1.000
    N7      N    0.91411   0.02773   0.36208   1.000
    N8      N    0.55773   0.44227   0.44227   1.000
    N9      N    0.71691   0.38801   0.38801   1.000
    N10     N    0.83087   0.31154   0.42880   1.000
    N11     N    0.96379   0.20562   0.20562   1.000
    N12     N    0.28583   0.17314   0.84016   1.000
    N13     N    0.33589   0.22227   0.55392   1.000
    N14     N    0.29883   0.29883   0.63443   1.000
    N15     N    0.17314   0.28583   0.70086   1.000
    N16     N    0.38801   0.38801   0.50707   1.000
    N17     N    0.44227   0.44227   0.55773   1.000
    N18     N    0.20562   0.20562   0.62498   1.000
    N19     N    0.31154   0.42880   0.42880   1.000
    N20     N    0.22227   0.33589   0.55392   1.000
    N21     N    0.02773   0.36208   0.69608   1.000
    N22     N    0.04438   0.28621   0.62503   1.000
    N23     N    0.42880   0.31154   0.42880   1.000
    N24     N    0.22227   0.33589   0.88792   1.000
    N25     N    0.29883   0.29883   0.76792   1.000
    N26     N    0.42880   0.83087   0.31154   1.000
    N27     N    0.55392   0.88792   0.33589   1.000
    N28     N    0.38801   0.50707   0.71691   1.000
    N29     N    0.31154   0.42880   0.83087   1.000
    N30     N    0.28583   0.84016   0.70086   1.000
    N31     N    0.29883   0.76792   0.63443   1.000
    N32     N    0.07686   0.96417   0.54914   1.000
    N33     N    0.95117   0.95117   0.61557   1.000
    N34     N    0.91411   0.02773   0.69608   1.000
    N35     N    0.38801   0.71691   0.38801   1.000
    N36     N    0.31154   0.83087   0.42880   1.000
    N37     N    0.20562   0.96379   0.20562   1.000
    N38     N    0.70086   0.84016   0.17314   1.000
    N39     N    0.63443   0.76792   0.29883   1.000
    N40     N    0.55773   0.55773   0.44227   1.000
    N41     N    0.22227   0.55392   0.33589   1.000
    N42     N    0.44227   0.55773   0.44227   1.000
    N43     N    0.55392   0.33589   0.22227   1.000
    N44     N    0.55392   0.88792   0.22227   1.000
    N45     N    0.50707   0.71691   0.38801   1.000
    N46     N    0.62498   0.20562   0.96380   1.000
    N47     N    0.54914   0.40984   0.96417   1.000
    N48     N    0.61557   0.48208   0.95117   1.000
    N49     N    0.62497   0.96379   0.20562   1.000
    N50     N    0.02773   0.91411   0.69608   1.000
    N51     N    0.88792   0.22227   0.55392   1.000
    N52     N    0.33589   0.88792   0.55392   1.000
    N53     N    0.88792   0.33589   0.55392   1.000
    N54     N    0.96417   0.07686   0.54914   1.000
    N55     N    0.07686   0.40984   0.54914   1.000
    N56     N    0.40984   0.96417   0.54914   1.000
    N57     N    0.96417   0.40984   0.54914   1.000
    N58     N    0.40984   0.07686   0.54914   1.000
    N59     N    0.70086   0.17314   0.28583   1.000
    N60     N    0.42880   0.83087   0.42880   1.000
    N61     N    0.20562   0.62497   0.20562   1.000
    N62     N    0.28583   0.70086   0.17314   1.000
    N63     N    0.44227   0.55773   0.55773   1.000
    N64     N    0.69608   0.91411   0.02773   1.000
    N65     N    0.17314   0.84016   0.70086   1.000
    N66     N    0.86199   0.74293   0.53309   1.000
    N67     N    0.74294   0.86199   0.53309   1.000
    N68     N    0.86199   0.86199   0.53309   1.000
    N69     N    0.22227   0.88792   0.55392   1.000
    N70     N    0.17314   0.70086   0.84016   1.000
    N71     N    0.33589   0.88792   0.22227   1.000
    N72     N    0.02773   0.91411   0.36208   1.000
    N73     N    0.20562   0.96379   0.62498   1.000
    N74     N    0.04438   0.04438   0.28621   1.000
    N75     N    0.17314   0.84016   0.28583   1.000
    N76     N    0.33589   0.55392   0.22227   1.000
    N77     N    0.36208   0.69608   0.02773   1.000
    N78     N    0.48208   0.61557   0.95117   1.000
    N79     N    0.36208   0.69608   0.91411   1.000
    N80     N    0.20562   0.62498   0.96380   1.000
    N81     N    0.96417   0.07686   0.40984   1.000
    N82     N    0.95117   0.95117   0.48208   1.000
    N83     N    0.80773   0.80773   0.69227   1.000
    N84     N    0.71691   0.38801   0.50707   1.000
    N85     N    0.38801   0.71691   0.50707   1.000
    N86     N    0.38801   0.50706   0.38801   1.000
    N87     N    0.29883   0.76792   0.29883   1.000
    N88     N    0.93846   0.82120   0.41913   1.000
    N89     N    0.17314   0.70086   0.28583   1.000
    N90     N    0.71691   0.50706   0.38801   1.000
    N91     N    0.22227   0.88792   0.33589   1.000
    N92     N    0.28621   0.62502   0.04438   1.000
    N93     N    0.40984   0.54914   0.96417   1.000
    N94     N    0.07686   0.54914   0.40984   1.000
    N95     N    0.95117   0.61557   0.48208   1.000
    N96     N    0.91411   0.69608   0.36208   1.000
    N97     N    0.96417   0.54914   0.40984   1.000
    N98     N    0.28583   0.84016   0.17314   1.000
    N99     N    0.84016   0.70086   0.17314   1.000
    N100    N    0.84016   0.28583   0.17314   1.000
    N101    N    0.70086   0.28583   0.17314   1.000
    N102    N    0.62497   0.20562   0.20562   1.000
    N103    N    0.82120   0.93846   0.41913   1.000
    N104    N    0.29883   0.63443   0.29883   1.000
    N105    N    0.95117   0.48208   0.61557   1.000
    N106    N    0.91411   0.36208   0.69608   1.000
    N107    N    0.86199   0.74294   0.86199   1.000
    N108    N    0.82120   0.82120   0.93846   1.000
    N109    N    0.04438   0.62502   0.04438   1.000
    N110    N    0.96417   0.54914   0.07686   1.000
    N111    N    0.95117   0.61557   0.95117   1.000
    N112    N    0.02773   0.69608   0.91411   1.000
    N113    N    0.84016   0.70086   0.28583   1.000
    N114    N    0.69608   0.36208   0.02773   1.000
    N115    N    0.91411   0.69608   0.02773   1.000
    N116    N    0.91411   0.36208   0.02773   1.000
    N117    N    0.36208   0.91411   0.02773   1.000
    N118    N    0.96417   0.40984   0.07686   1.000
    N119    N    0.40984   0.96417   0.07686   1.000
    N120    N    0.54914   0.96417   0.07686   1.000
    N121    N    0.96379   0.62497   0.20562   1.000
    N122    N    0.38801   0.38801   0.71691   1.000
    N123    N    0.63443   0.29883   0.29883   1.000
    N124    N    0.55392   0.22227   0.33589   1.000
    N125    N    0.50706   0.38801   0.38801   1.000
    N126    N    0.42880   0.42880   0.31154   1.000
    N127    N    0.62502   0.28621   0.04438   1.000
    N128    N    0.28621   0.04438   0.62503   1.000
    N129    N    0.28583   0.17314   0.70086   1.000
    N130    N    0.83087   0.42880   0.31154   1.000
    N131    N    0.76792   0.63443   0.29883   1.000
    N132    N    0.69608   0.02773   0.36208   1.000
    N133    N    0.69608   0.91411   0.36208   1.000
    N134    N    0.02773   0.69608   0.36208   1.000
    N135    N    0.83087   0.42880   0.42880   1.000
    N136    N    0.42880   0.31154   0.83087   1.000
    N137    N    0.28620   0.04438   0.04438   1.000
    N138    N    0.48208   0.95117   0.61557   1.000
    N139    N    0.48208   0.95117   0.95117   1.000
    N140    N    0.53309   0.86199   0.86199   1.000
    N141    N    0.41913   0.82120   0.93846   1.000
    N142    N    0.41913   0.93846   0.82120   1.000
    N143    N    0.69227   0.69227   0.80773   1.000
    N144    N    0.53309   0.74294   0.86199   1.000
    N145    N    0.41913   0.82120   0.82120   1.000
    N146    N    0.07686   0.54914   0.96417   1.000
    N147    N    0.33589   0.22227   0.88792   1.000
    N148    N    0.55773   0.44227   0.55773   1.000
    N149    N    0.04438   0.04438   0.62503   1.000
    N150    N    0.69608   0.36208   0.91411   1.000
    N151    N    0.74293   0.53309   0.86199   1.000
    N152    N    0.82120   0.41913   0.93846   1.000
    N153    N    0.80773   0.69227   0.80773   1.000
    N154    N    0.93846   0.82120   0.82120   1.000
    N155    N    0.36208   0.91411   0.69608   1.000
    N156    N    0.36208   0.02773   0.69608   1.000
    N157    N    0.69227   0.80773   0.69227   1.000
    N158    N    0.53309   0.86199   0.74294   1.000
    N159    N    0.33589   0.55392   0.88792   1.000
    N160    N    0.82120   0.82120   0.41913   1.000
    N161    N    0.04438   0.62502   0.28621   1.000
    N162    N    0.69227   0.80773   0.80773   1.000
    N163    N    0.22227   0.55392   0.88792   1.000
    N164    N    0.70086   0.84016   0.28583   1.000
    N165    N    0.62502   0.04438   0.28621   1.000
    N166    N    0.80773   0.69227   0.69227   1.000
    N167    N    0.07686   0.96417   0.40984   1.000
    N168    N    0.54914   0.96417   0.40984   1.000
    N169    N    0.54914   0.07686   0.40984   1.000
    N170    N    0.88792   0.55392   0.33589   1.000
    N171    N    0.54914   0.40984   0.07686   1.000
    N172    N    0.62502   0.04438   0.04438   1.000
    N173    N    0.55392   0.33589   0.88792   1.000
    N174    N    0.96380   0.20562   0.62497   1.000
    N175    N    0.86199   0.53309   0.86199   1.000
    N176    N    0.95117   0.48208   0.95117   1.000
    N177    N    0.50706   0.38801   0.71691   1.000
    N178    N    0.42880   0.42880   0.83087   1.000
    N179    N    0.40984   0.54914   0.07686   1.000
    N180    N    0.61557   0.95117   0.48208   1.000
    N181    N    0.04438   0.28621   0.04438   1.000
    N182    N    0.29883   0.63443   0.76792   1.000
    N183    N    0.28583   0.70086   0.84016   1.000
    N184    N    0.86199   0.53309   0.74294   1.000
    N185    N    0.84016   0.17314   0.70086   1.000
    N186    N    0.76792   0.29883   0.63443   1.000
    N187    N    0.93846   0.41913   0.82120   1.000
    N188    N    0.82120   0.41913   0.82120   1.000
    N189    N    0.84016   0.28583   0.70086   1.000
    N190    N    0.74293   0.86199   0.86199   1.000
    N191    N    0.17314   0.28583   0.84016   1.000
    N192    N    0.70086   0.17314   0.84016   1.000
    N193    N    0.63443   0.29883   0.76792   1.000
    N194    N    0.55392   0.22227   0.88792   1.000
    N195    N    0.40984   0.07686   0.96417   1.000
    N196    N    0.07686   0.40984   0.96417   1.000
    N197    N    0.61557   0.95117   0.95117   1.000
    N198    N    0.70086   0.28583   0.84016   1.000
    N199    N    0.82120   0.93846   0.82120   1.000
    N200    N    0.54914   0.07686   0.96417   1.000
    N201    N    0.02773   0.36208   0.91411   1.000
    N202    N    0.69608   0.02773   0.91411   1.000
    N203    N    0.86199   0.86199   0.74294   1.000
    Zr204   Zr   0.12500   0.93992   0.31009   1.000
    O205    O    0.09948   0.97151   0.29720   1.000
    O206    O    0.14611   0.94813   0.27396   1.000
    O207    O    0.13681   0.91170   0.29747   1.000
    O208    O    0.09422   0.93340   0.31961   1.000
    O209    O    0.15336   0.91862   0.32398   1.000
    O210    O    0.13917   0.90448   0.30927   1.000
    O211    O    0.09664   0.92602   0.33138   1.000
    O212    O    0.11083   0.94073   0.34552   1.000
    O213    O    0.11319   0.95253   0.33830   1.000
    O214    O    0.10389   0.97604   0.30188   1.000
    O215    O    0.15578   0.93039   0.31660   1.000
    O216    O    0.15052   0.95280   0.27849   1.000
    Zr217   Zr   0.33064   0.82087   0.33064   1.000
    O218    O    0.31632   0.80177   0.32739   1.000
    O219    O    0.29389   0.83693   0.33841   1.000
    O220    O    0.31982   0.82024   0.36544   1.000
    O221    O    0.34230   0.78668   0.35338   1.000
    O222    O    0.32739   0.80177   0.31632   1.000
    O223    O    0.33841   0.83693   0.29389   1.000
    O224    O    0.36544   0.82024   0.31982   1.000
    O225    O    0.35338   0.78668   0.34230   1.000
    O226    O    0.29787   0.84783   0.33140   1.000
    O227    O    0.33140   0.84783   0.29788   1.000
    O228    O    0.35834   0.83108   0.32388   1.000
    O229    O    0.32388   0.83108   0.35834   1.000
    Zr230   Zr   0.62500   0.93991   0.31009   1.000
    O231    O    0.63181   0.94813   0.27396   1.000
    O232    O    0.65277   0.93340   0.31961   1.000
    O233    O    0.63181   0.97151   0.29720   1.000
    O234    O    0.65402   0.91170   0.29747   1.000
    O235    O    0.64597   0.92602   0.33138   1.000
    O236    O    0.60291   0.94073   0.34552   1.000
    O237    O    0.60403   0.91862   0.32398   1.000
    O238    O    0.64709   0.90448   0.30927   1.000
    O239    O    0.59723   0.93039   0.31660   1.000
    O240    O    0.59598   0.95253   0.33830   1.000
    O241    O    0.61819   0.97604   0.30188   1.000
    O242    O    0.61819   0.95280   0.27849   1.000
    Zr243   Zr   0.51785   0.82087   0.33064   1.000
    O244    O    0.49451   0.82024   0.36544   1.000
    O245    O    0.53077   0.83693   0.33841   1.000
    O246    O    0.51764   0.78668   0.35338   1.000
    O247    O    0.55452   0.80177   0.32739   1.000
    O248    O    0.51764   0.78668   0.34230   1.000
    O249    O    0.53077   0.83693   0.29389   1.000
    O250    O    0.55452   0.80177   0.31632   1.000
    O251    O    0.49451   0.82024   0.31982   1.000
    O252    O    0.48670   0.83108   0.35834   1.000
    O253    O    0.52290   0.84783   0.29788   1.000
    O254    O    0.48670   0.83108   0.32388   1.000
    O255    O    0.52290   0.84783   0.33140   1.000
    Zr256   Zr   0.93991   0.12500   0.31009   1.000
    O257    O    0.93340   0.09422   0.31961   1.000
    O258    O    0.94813   0.14611   0.27396   1.000
    O259    O    0.97151   0.09948   0.29720   1.000
    O260    O    0.91170   0.13681   0.29747   1.000
    O261    O    0.95280   0.15052   0.27849   1.000
    O262    O    0.95253   0.11319   0.33830   1.000
    O263    O    0.93039   0.15578   0.31660   1.000
    O264    O    0.97604   0.10389   0.30188   1.000
    O265    O    0.90448   0.13917   0.30927   1.000
    O266    O    0.94073   0.11083   0.34552   1.000
    O267    O    0.91862   0.15336   0.32398   1.000
    O268    O    0.92602   0.09664   0.33138   1.000
    Zr269   Zr   0.82087   0.33064   0.33064   1.000
    O270    O    0.82024   0.31982   0.36544   1.000
    O271    O    0.78668   0.34230   0.35338   1.000
    O272    O    0.83693   0.29389   0.33841   1.000
    O273    O    0.80177   0.31632   0.32739   1.000
    O274    O    0.84783   0.33140   0.29788   1.000
    O275    O    0.83108   0.32388   0.35834   1.000
    O276    O    0.83108   0.35834   0.32388   1.000
    O277    O    0.84783   0.29788   0.33140   1.000
    O278    O    0.83693   0.33841   0.29389   1.000
    O279    O    0.78668   0.35338   0.34230   1.000
    O280    O    0.82024   0.36544   0.31982   1.000
    O281    O    0.80177   0.32739   0.31632   1.000
    Zr282   Zr   0.33064   0.33064   0.51785   1.000
    O283    O    0.29389   0.33841   0.53077   1.000
    O284    O    0.34230   0.35338   0.51764   1.000
    O285    O    0.31982   0.36544   0.49451   1.000
    O286    O    0.31632   0.32739   0.55452   1.000
    O287    O    0.29787   0.33140   0.52290   1.000
    O288    O    0.32388   0.35834   0.48670   1.000
    O289    O    0.33140   0.29788   0.52290   1.000
    O290    O    0.35834   0.32388   0.48670   1.000
    O291    O    0.33841   0.29389   0.53077   1.000
    O292    O    0.32739   0.31632   0.55452   1.000
    O293    O    0.35338   0.34230   0.51764   1.000
    O294    O    0.36544   0.31982   0.49451   1.000
    Zr295   Zr   0.82087   0.33064   0.51785   1.000
    O296    O    0.83693   0.33841   0.53077   1.000
    O297    O    0.78668   0.35338   0.51764   1.000
    O298    O    0.82024   0.36544   0.49451   1.000
    O299    O    0.80177   0.32739   0.55452   1.000
    O300    O    0.83108   0.35834   0.48670   1.000
    O301    O    0.83108   0.32388   0.48670   1.000
    O302    O    0.84783   0.29787   0.52290   1.000
    O303    O    0.84783   0.33140   0.52290   1.000
    O304    O    0.82024   0.31982   0.49451   1.000
    O305    O    0.78668   0.34230   0.51764   1.000
    O306    O    0.80177   0.31632   0.55452   1.000
    O307    O    0.83693   0.29389   0.53077   1.000
    Zr308   Zr   0.33064   0.82087   0.51785   1.000
    O309    O    0.29389   0.83693   0.53077   1.000
    O310    O    0.31982   0.82024   0.49451   1.000
    O311    O    0.34230   0.78668   0.51764   1.000
    O312    O    0.31632   0.80177   0.55452   1.000
    O313    O    0.36544   0.82024   0.49451   1.000
    O314    O    0.35338   0.78668   0.51764   1.000
    O315    O    0.33841   0.83693   0.53077   1.000
    O316    O    0.32739   0.80177   0.55452   1.000
    O317    O    0.35834   0.83108   0.48670   1.000
    O318    O    0.29787   0.84783   0.52290   1.000
    O319    O    0.33140   0.84783   0.52290   1.000
    O320    O    0.32388   0.83108   0.48670   1.000
    Zr321   Zr   0.93991   0.31008   0.62500   1.000
    O322    O    0.95253   0.33830   0.59598   1.000
    O323    O    0.95280   0.27849   0.61819   1.000
    O324    O    0.97604   0.30188   0.61819   1.000
    O325    O    0.93039   0.31660   0.59723   1.000
    O326    O    0.97151   0.29720   0.63181   1.000
    O327    O    0.93340   0.31961   0.65277   1.000
    O328    O    0.94812   0.27396   0.63181   1.000
    O329    O    0.91170   0.29747   0.65402   1.000
    O330    O    0.94073   0.34552   0.60291   1.000
    O331    O    0.91862   0.32398   0.60403   1.000
    O332    O    0.90448   0.30927   0.64709   1.000
    O333    O    0.92602   0.33138   0.64597   1.000
    Zr334   Zr   0.91936   0.42913   0.73215   1.000
    O335    O    0.91159   0.41307   0.71923   1.000
    O336    O    0.89662   0.46332   0.73236   1.000
    O337    O    0.92261   0.44823   0.69548   1.000
    O338    O    0.88456   0.42976   0.75549   1.000
    O339    O    0.91860   0.40217   0.72710   1.000
    O340    O    0.95212   0.40217   0.72710   1.000
    O341    O    0.92612   0.41892   0.76330   1.000
    O342    O    0.89166   0.41892   0.76330   1.000
    O343    O    0.95611   0.41307   0.71923   1.000
    O344    O    0.93368   0.44823   0.69548   1.000
    O345    O    0.93018   0.42976   0.75549   1.000
    O346    O    0.90770   0.46332   0.73236   1.000
    Zr347   Zr   0.91936   0.91936   0.42913   1.000
    O348    O    0.88456   0.93018   0.42976   1.000
    O349    O    0.91159   0.95611   0.41307   1.000
    O350    O    0.89662   0.90770   0.46332   1.000
    O351    O    0.92261   0.93368   0.44823   1.000
    O352    O    0.90770   0.89662   0.46332   1.000
    O353    O    0.95611   0.91159   0.41307   1.000
    O354    O    0.93018   0.88456   0.42976   1.000
    O355    O    0.93368   0.92261   0.44823   1.000
    O356    O    0.89166   0.92612   0.41892   1.000
    O357    O    0.91860   0.95213   0.40217   1.000
    O358    O    0.92612   0.89166   0.41892   1.000
    O359    O    0.95212   0.91860   0.40217   1.000
    Zr360   Zr   0.62500   0.93992   0.12500   1.000
    O361    O    0.65402   0.91170   0.13681   1.000
    O362    O    0.65277   0.93340   0.09422   1.000
    O363    O    0.63181   0.94813   0.14611   1.000
    O364    O    0.63181   0.97151   0.09948   1.000
    O365    O    0.59723   0.93039   0.15578   1.000
    O366    O    0.59598   0.95253   0.11319   1.000
    O367    O    0.61819   0.97604   0.10389   1.000
    O368    O    0.61819   0.95280   0.15052   1.000
    O369    O    0.64709   0.90448   0.13917   1.000
    O370    O    0.64597   0.92602   0.09664   1.000
    O371    O    0.60403   0.91862   0.15336   1.000
    O372    O    0.60291   0.94073   0.11083   1.000
    Zr373   Zr   0.12500   0.62500   0.31009   1.000
    O374    O    0.15052   0.61819   0.27849   1.000
    O375    O    0.15578   0.59723   0.31660   1.000
    O376    O    0.11319   0.59598   0.33830   1.000
    O377    O    0.10389   0.61819   0.30188   1.000
    O378    O    0.11083   0.60291   0.34552   1.000
    O379    O    0.09664   0.64597   0.33138   1.000
    O380    O    0.13917   0.64709   0.30927   1.000
    O381    O    0.15336   0.60403   0.32398   1.000
    O382    O    0.14611   0.63181   0.27396   1.000
    O383    O    0.09422   0.65277   0.31961   1.000
    O384    O    0.09948   0.63181   0.29720   1.000
    O385    O    0.13681   0.65402   0.29747   1.000
    Zr386   Zr   0.12500   0.62500   0.93992   1.000
    O387    O    0.09948   0.63181   0.97151   1.000
    O388    O    0.14611   0.63181   0.94813   1.000
    O389    O    0.09422   0.65277   0.93340   1.000
    O390    O    0.13681   0.65402   0.91170   1.000
    O391    O    0.10389   0.61819   0.97604   1.000
    O392    O    0.15052   0.61819   0.95280   1.000
    O393    O    0.11319   0.59598   0.95253   1.000
    O394    O    0.15578   0.59723   0.93039   1.000
    O395    O    0.13917   0.64709   0.90448   1.000
    O396    O    0.11083   0.60291   0.94073   1.000
    O397    O    0.15336   0.60403   0.91862   1.000
    O398    O    0.09664   0.64597   0.92602   1.000
    Zr399   Zr   0.33064   0.51785   0.82087   1.000
    O400    O    0.31632   0.55452   0.80177   1.000
    O401    O    0.29389   0.53077   0.83693   1.000
    O402    O    0.31982   0.49451   0.82024   1.000
    O403    O    0.34230   0.51764   0.78668   1.000
    O404    O    0.35834   0.48670   0.83108   1.000
    O405    O    0.32388   0.48670   0.83108   1.000
    O406    O    0.29787   0.52290   0.84783   1.000
    O407    O    0.33140   0.52290   0.84783   1.000
    O408    O    0.36544   0.49451   0.82024   1.000
    O409    O    0.32739   0.55452   0.80177   1.000
    O410    O    0.35338   0.51764   0.78668   1.000
    O411    O    0.33841   0.53077   0.83693   1.000
    Zr412   Zr   0.31008   0.62500   0.93992   1.000
    O413    O    0.27849   0.61819   0.95280   1.000
    O414    O    0.33830   0.59598   0.95253   1.000
    O415    O    0.30188   0.61819   0.97604   1.000
    O416    O    0.31660   0.59723   0.93039   1.000
    O417    O    0.33138   0.64597   0.92602   1.000
    O418    O    0.34552   0.60291   0.94073   1.000
    O419    O    0.32398   0.60403   0.91862   1.000
    O420    O    0.30927   0.64709   0.90448   1.000
    O421    O    0.31961   0.65277   0.93340   1.000
    O422    O    0.29720   0.63181   0.97151   1.000
    O423    O    0.29747   0.65402   0.91170   1.000
    O424    O    0.27396   0.63181   0.94813   1.000
    Zr425   Zr   0.42913   0.73215   0.91936   1.000
    O426    O    0.41307   0.71923   0.91159   1.000
    O427    O    0.44823   0.69548   0.92261   1.000
    O428    O    0.42976   0.75549   0.88456   1.000
    O429    O    0.46332   0.73236   0.89662   1.000
    O430    O    0.46332   0.73236   0.90770   1.000
    O431    O    0.44823   0.69548   0.93368   1.000
    O432    O    0.42976   0.75549   0.93018   1.000
    O433    O    0.41307   0.71923   0.95611   1.000
    O434    O    0.40217   0.72710   0.95213   1.000
    O435    O    0.40217   0.72710   0.91860   1.000
    O436    O    0.41892   0.76330   0.92612   1.000
    O437    O    0.41892   0.76330   0.89166   1.000
    Zr438   Zr   0.91936   0.73215   0.91936   1.000
    O439    O    0.93368   0.69548   0.92261   1.000
    O440    O    0.93018   0.75549   0.88456   1.000
    O441    O    0.95611   0.71923   0.91159   1.000
    O442    O    0.90770   0.73236   0.89662   1.000
    O443    O    0.95213   0.72710   0.91860   1.000
    O444    O    0.89166   0.76330   0.92612   1.000
    O445    O    0.91860   0.72710   0.95213   1.000
    O446    O    0.92612   0.76330   0.89166   1.000
    O447    O    0.92261   0.69548   0.93368   1.000
    O448    O    0.91159   0.71923   0.95611   1.000
    O449    O    0.89662   0.73236   0.90770   1.000
    O450    O    0.88456   0.75549   0.93018   1.000
    Zr451   Zr   0.31008   0.93992   0.12500   1.000
    O452    O    0.27849   0.95280   0.15052   1.000
    O453    O    0.31660   0.93039   0.15578   1.000
    O454    O    0.33830   0.95253   0.11319   1.000
    O455    O    0.30187   0.97604   0.10389   1.000
    O456    O    0.32398   0.91862   0.15336   1.000
    O457    O    0.34552   0.94073   0.11083   1.000
    O458    O    0.30927   0.90448   0.13917   1.000
    O459    O    0.33138   0.92602   0.09664   1.000
    O460    O    0.31961   0.93340   0.09422   1.000
    O461    O    0.29747   0.91170   0.13681   1.000
    O462    O    0.29720   0.97151   0.09948   1.000
    O463    O    0.27396   0.94813   0.14611   1.000
    Zr464   Zr   0.42913   0.91936   0.91936   1.000
    O465    O    0.46332   0.89662   0.90770   1.000
    O466    O    0.42976   0.88456   0.93018   1.000
    O467    O    0.41307   0.91159   0.95611   1.000
    O468    O    0.44823   0.92261   0.93368   1.000
    O469    O    0.41307   0.95611   0.91159   1.000
    O470    O    0.46332   0.90770   0.89662   1.000
    O471    O    0.44823   0.93368   0.92261   1.000
    O472    O    0.42976   0.93018   0.88456   1.000
    O473    O    0.40217   0.91860   0.95213   1.000
    O474    O    0.41892   0.89166   0.92612   1.000
    O475    O    0.40217   0.95212   0.91860   1.000
    O476    O    0.41892   0.92612   0.89166   1.000
    Zr477   Zr   0.93992   0.62500   0.12500   1.000
    O478    O    0.94813   0.63181   0.14611   1.000
    O479    O    0.91170   0.65402   0.13681   1.000
    O480    O    0.97151   0.63181   0.09948   1.000
    O481    O    0.93340   0.65277   0.09422   1.000
    O482    O    0.93039   0.59723   0.15578   1.000
    O483    O    0.95253   0.59598   0.11319   1.000
    O484    O    0.95280   0.61819   0.15052   1.000
    O485    O    0.97604   0.61819   0.10389   1.000
    O486    O    0.90448   0.64709   0.13917   1.000
    O487    O    0.94073   0.60291   0.11083   1.000
    O488    O    0.92602   0.64597   0.09664   1.000
    O489    O    0.91862   0.60403   0.15336   1.000
    Zr490   Zr   0.31008   0.62500   0.12500   1.000
    O491    O    0.34552   0.60291   0.11083   1.000
    O492    O    0.32398   0.60403   0.15336   1.000
    O493    O    0.30927   0.64709   0.13917   1.000
    O494    O    0.33138   0.64597   0.09664   1.000
    O495    O    0.31660   0.59723   0.15578   1.000
    O496    O    0.30188   0.61819   0.10389   1.000
    O497    O    0.27849   0.61819   0.15052   1.000
    O498    O    0.33830   0.59598   0.11319   1.000
    O499    O    0.29720   0.63181   0.09948   1.000
    O500    O    0.29747   0.65402   0.13681   1.000
    O501    O    0.31961   0.65277   0.09422   1.000
    O502    O    0.27396   0.63181   0.14611   1.000
    Zr503   Zr   0.93992   0.31008   0.12500   1.000
    O504    O    0.95280   0.27849   0.15052   1.000
    O505    O    0.97604   0.30188   0.10389   1.000
    O506    O    0.93039   0.31660   0.15578   1.000
    O507    O    0.95253   0.33830   0.11319   1.000
    O508    O    0.90448   0.30927   0.13917   1.000
    O509    O    0.92602   0.33138   0.09664   1.000
    O510    O    0.94073   0.34552   0.11083   1.000
    O511    O    0.91862   0.32398   0.15336   1.000
    O512    O    0.93340   0.31961   0.09422   1.000
    O513    O    0.97151   0.29720   0.09948   1.000
    O514    O    0.91170   0.29747   0.13681   1.000
    O515    O    0.94813   0.27396   0.14611   1.000
    Zr516   Zr   0.91936   0.42913   0.91936   1.000
    O517    O    0.91860   0.40217   0.95213   1.000
    O518    O    0.95212   0.40217   0.91860   1.000
    O519    O    0.89166   0.41892   0.92612   1.000
    O520    O    0.92612   0.41892   0.89166   1.000
    O521    O    0.88456   0.42976   0.93018   1.000
    O522    O    0.89662   0.46332   0.90770   1.000
    O523    O    0.91159   0.41307   0.95611   1.000
    O524    O    0.92261   0.44823   0.93368   1.000
    O525    O    0.93368   0.44823   0.92261   1.000
    O526    O    0.95611   0.41307   0.91159   1.000
    O527    O    0.90770   0.46332   0.89662   1.000
    O528    O    0.93018   0.42976   0.88456   1.000
    Zr529   Zr   0.93991   0.62500   0.31009   1.000
    O530    O    0.94812   0.63181   0.27396   1.000
    O531    O    0.91170   0.65402   0.29747   1.000
    O532    O    0.97151   0.63181   0.29720   1.000
    O533    O    0.93340   0.65277   0.31961   1.000
    O534    O    0.95280   0.61819   0.27849   1.000
    O535    O    0.95253   0.59598   0.33830   1.000
    O536    O    0.93039   0.59723   0.31660   1.000
    O537    O    0.97604   0.61819   0.30188   1.000
    O538    O    0.94073   0.60291   0.34552   1.000
    O539    O    0.90448   0.64709   0.30927   1.000
    O540    O    0.91862   0.60403   0.32398   1.000
    O541    O    0.92602   0.64597   0.33138   1.000
    Zr542   Zr   0.82087   0.51785   0.33064   1.000
    O543    O    0.83108   0.48670   0.35834   1.000
    O544    O    0.84783   0.52290   0.33140   1.000
    O545    O    0.83108   0.48670   0.32388   1.000
    O546    O    0.84783   0.52290   0.29788   1.000
    O547    O    0.78668   0.51764   0.34230   1.000
    O548    O    0.82024   0.49451   0.31982   1.000
    O549    O    0.83693   0.53077   0.29389   1.000
    O550    O    0.80177   0.55452   0.31632   1.000
    O551    O    0.78668   0.51764   0.35338   1.000
    O552    O    0.83693   0.53077   0.33841   1.000
    O553    O    0.82024   0.49451   0.36544   1.000
    O554    O    0.80177   0.55452   0.32739   1.000
    Zr555   Zr   0.51785   0.33064   0.33064   1.000
    O556    O    0.48670   0.35834   0.32388   1.000
    O557    O    0.52290   0.29788   0.33140   1.000
    O558    O    0.52290   0.33140   0.29788   1.000
    O559    O    0.48670   0.32388   0.35834   1.000
    O560    O    0.53077   0.33841   0.29389   1.000
    O561    O    0.55452   0.32739   0.31632   1.000
    O562    O    0.49451   0.36544   0.31982   1.000
    O563    O    0.51764   0.35338   0.34230   1.000
    O564    O    0.55452   0.31632   0.32739   1.000
    O565    O    0.51764   0.34230   0.35338   1.000
    O566    O    0.53077   0.29389   0.33841   1.000
    O567    O    0.49451   0.31982   0.36544   1.000
    Zr568   Zr   0.73215   0.91936   0.42913   1.000
    O569    O    0.71923   0.91159   0.41307   1.000
    O570    O    0.69548   0.92261   0.44823   1.000
    O571    O    0.73236   0.89662   0.46332   1.000
    O572    O    0.75549   0.88456   0.42976   1.000
    O573    O    0.72710   0.91860   0.40217   1.000
    O574    O    0.76330   0.92612   0.41892   1.000
    O575    O    0.72710   0.95213   0.40217   1.000
    O576    O    0.76330   0.89166   0.41892   1.000
    O577    O    0.69548   0.93368   0.44823   1.000
    O578    O    0.73236   0.90770   0.46332   1.000
    O579    O    0.75549   0.93018   0.42976   1.000
    O580    O    0.71923   0.95611   0.41307   1.000
    Zr581   Zr   0.42913   0.91936   0.73215   1.000
    O582    O    0.41892   0.92612   0.76330   1.000
    O583    O    0.40217   0.91860   0.72710   1.000
    O584    O    0.41892   0.89166   0.76330   1.000
    O585    O    0.40217   0.95213   0.72710   1.000
    O586    O    0.44823   0.92261   0.69548   1.000
    O587    O    0.41307   0.91159   0.71923   1.000
    O588    O    0.46332   0.89662   0.73236   1.000
    O589    O    0.42976   0.88456   0.75549   1.000
    O590    O    0.42976   0.93018   0.75549   1.000
    O591    O    0.44823   0.93368   0.69548   1.000
    O592    O    0.46332   0.90770   0.73236   1.000
    O593    O    0.41307   0.95611   0.71923   1.000
    Zr594   Zr   0.62500   0.12500   0.31009   1.000
    O595    O    0.65402   0.13681   0.29747   1.000
    O596    O    0.65277   0.09422   0.31961   1.000
    O597    O    0.63181   0.14611   0.27396   1.000
    O598    O    0.63181   0.09948   0.29720   1.000
    O599    O    0.64709   0.13917   0.30927   1.000
    O600    O    0.60291   0.11083   0.34552   1.000
    O601    O    0.60403   0.15336   0.32398   1.000
    O602    O    0.64597   0.09664   0.33138   1.000
    O603    O    0.59598   0.11319   0.33830   1.000
    O604    O    0.61819   0.15052   0.27849   1.000
    O605    O    0.59723   0.15578   0.31660   1.000
    O606    O    0.61819   0.10389   0.30188   1.000
    Zr607   Zr   0.31008   0.12500   0.93992   1.000
    O608    O    0.33830   0.11319   0.95253   1.000
    O609    O    0.30187   0.10389   0.97604   1.000
    O610    O    0.31660   0.15578   0.93039   1.000
    O611    O    0.27849   0.15052   0.95280   1.000
    O612    O    0.29720   0.09948   0.97151   1.000
    O613    O    0.29747   0.13681   0.91170   1.000
    O614    O    0.27396   0.14611   0.94813   1.000
    O615    O    0.31961   0.09422   0.93340   1.000
    O616    O    0.30927   0.13917   0.90448   1.000
    O617    O    0.33138   0.09664   0.92602   1.000
    O618    O    0.32398   0.15336   0.91862   1.000
    O619    O    0.34552   0.11083   0.94073   1.000
    Zr620   Zr   0.91936   0.73215   0.42913   1.000
    O621    O    0.92612   0.76330   0.41892   1.000
    O622    O    0.89166   0.76330   0.41892   1.000
    O623    O    0.95212   0.72710   0.40217   1.000
    O624    O    0.91860   0.72710   0.40217   1.000
    O625    O    0.89662   0.73236   0.46332   1.000
    O626    O    0.92261   0.69548   0.44823   1.000
    O627    O    0.88456   0.75549   0.42976   1.000
    O628    O    0.91159   0.71923   0.41307   1.000
    O629    O    0.93368   0.69548   0.44823   1.000
    O630    O    0.93018   0.75549   0.42976   1.000
    O631    O    0.90770   0.73236   0.46332   1.000
    O632    O    0.95611   0.71923   0.41307   1.000
    Zr633   Zr   0.25157   0.74843   0.25157   1.000
    O634    O    0.25713   0.77970   0.22380   1.000
    O635    O    0.22380   0.77970   0.25713   1.000
    O636    O    0.25713   0.73938   0.22380   1.000
    O637    O    0.22380   0.73938   0.25713   1.000
    O638    O    0.26945   0.73259   0.22508   1.000
    O639    O    0.26945   0.77288   0.22508   1.000
    O640    O    0.27329   0.71283   0.26223   1.000
    O641    O    0.27329   0.75164   0.26223   1.000
    O642    O    0.26223   0.75164   0.27329   1.000
    O643    O    0.22508   0.73259   0.26945   1.000
    O644    O    0.22508   0.77288   0.26945   1.000
    O645    O    0.26223   0.71283   0.27329   1.000
    Zr646   Zr   0.74843   0.25157   0.74843   1.000
    O647    O    0.73938   0.25713   0.77970   1.000
    O648    O    0.73938   0.22380   0.77970   1.000
    O649    O    0.77970   0.25713   0.73938   1.000
    O650    O    0.77970   0.22380   0.73938   1.000
    O651    O    0.77288   0.22508   0.73259   1.000
    O652    O    0.71283   0.26223   0.75164   1.000
    O653    O    0.73259   0.22508   0.77288   1.000
    O654    O    0.75164   0.26223   0.71283   1.000
    O655    O    0.71283   0.27329   0.75164   1.000
    O656    O    0.75164   0.27329   0.71283   1.000
    O657    O    0.77288   0.26945   0.73259   1.000
    O658    O    0.73259   0.26945   0.77288   1.000
    Zr659   Zr   0.99843   0.99843   0.50157   1.000
    O660    O    0.99287   0.02620   0.51062   1.000
    O661    O    0.02620   0.99287   0.47030   1.000
    O662    O    0.02620   0.99287   0.51062   1.000
    O663    O    0.99287   0.02620   0.47030   1.000
    O664    O    0.02492   0.98055   0.51741   1.000
    O665    O    0.98777   0.97671   0.49836   1.000
    O666    O    0.98777   0.97671   0.53717   1.000
    O667    O    0.02492   0.98055   0.47712   1.000
    O668    O    0.98055   0.02492   0.51741   1.000
    O669    O    0.98055   0.02492   0.47712   1.000
    O670    O    0.97671   0.98777   0.53717   1.000
    O671    O    0.97671   0.98777   0.49836   1.000
    Zr672   Zr   0.50157   0.50157   0.99843   1.000
    O673    O    0.51062   0.47030   0.99287   1.000
    O674    O    0.47030   0.51062   0.99287   1.000
    O675    O    0.51062   0.47030   0.02620   1.000
    O676    O    0.47030   0.51062   0.02620   1.000
    O677    O    0.49836   0.53717   0.97671   1.000
    O678    O    0.47712   0.51741   0.98055   1.000
    O679    O    0.53717   0.49836   0.97671   1.000
    O680    O    0.51741   0.47712   0.98055   1.000
    O681    O    0.53717   0.49836   0.98777   1.000
    O682    O    0.47712   0.51741   0.02492   1.000
    O683    O    0.49836   0.53717   0.98777   1.000
    O684    O    0.51741   0.47712   0.02492   1.000
    Zr685   Zr   0.50157   0.99843   0.50157   1.000
    O686    O    0.47030   0.99287   0.51062   1.000
    O687    O    0.47030   0.02620   0.51062   1.000
    O688    O    0.51062   0.99287   0.47030   1.000
    O689    O    0.51062   0.02620   0.47030   1.000
    O690    O    0.47712   0.02492   0.51741   1.000
    O691    O    0.49836   0.98777   0.53717   1.000
    O692    O    0.53717   0.98777   0.49836   1.000
    O693    O    0.51741   0.02492   0.47712   1.000
    O694    O    0.47712   0.98055   0.51741   1.000
    O695    O    0.51741   0.98055   0.47712   1.000
    O696    O    0.53717   0.97671   0.49836   1.000
    O697    O    0.49836   0.97671   0.53717   1.000
    Zr698   Zr   0.99843   0.50157   0.99843   1.000
    O699    O    0.99287   0.47030   0.02620   1.000
    O700    O    0.02620   0.47030   0.99287   1.000
    O701    O    0.02620   0.51062   0.99287   1.000
    O702    O    0.99287   0.51062   0.02620   1.000
    O703    O    0.98777   0.49836   0.97671   1.000
    O704    O    0.98777   0.53717   0.97671   1.000
    O705    O    0.02492   0.51741   0.98055   1.000
    O706    O    0.02492   0.47712   0.98055   1.000
    O707    O    0.98055   0.51741   0.02492   1.000
    O708    O    0.97671   0.53717   0.98777   1.000
    O709    O    0.97671   0.49836   0.98777   1.000
    O710    O    0.98055   0.47712   0.02492   1.000
    Zr711   Zr   0.99843   0.50157   0.50157   1.000
    O712    O    0.99287   0.47030   0.51062   1.000
    O713    O    0.02620   0.47030   0.51062   1.000
    O714    O    0.02620   0.51062   0.47030   1.000
    O715    O    0.99287   0.51062   0.47030   1.000
    O716    O    0.98055   0.47712   0.51741   1.000
    O717    O    0.98055   0.51741   0.47712   1.000
    O718    O    0.97671   0.53717   0.49836   1.000
    O719    O    0.97671   0.49836   0.53717   1.000
    O720    O    0.02492   0.51741   0.47712   1.000
    O721    O    0.98777   0.53717   0.49836   1.000
    O722    O    0.98777   0.49836   0.53717   1.000
    O723    O    0.02492   0.47712   0.51741   1.000
    Zr724   Zr   0.50157   0.99843   0.99843   1.000
    O725    O    0.51062   0.99287   0.02620   1.000
    O726    O    0.47030   0.99287   0.02620   1.000
    O727    O    0.47030   0.02620   0.99287   1.000
    O728    O    0.51062   0.02620   0.99287   1.000
    O729    O    0.49836   0.98777   0.97671   1.000
    O730    O    0.51741   0.02492   0.98055   1.000
    O731    O    0.53717   0.98777   0.97671   1.000
    O732    O    0.47712   0.02492   0.98055   1.000
    O733    O    0.53717   0.97671   0.98777   1.000
    O734    O    0.47712   0.98055   0.02492   1.000
    O735    O    0.51741   0.98055   0.02492   1.000
    O736    O    0.49836   0.97671   0.98777   1.000
    Zr737   Zr   0.25157   0.25157   0.74843   1.000
    O738    O    0.26223   0.27329   0.71283   1.000
    O739    O    0.22508   0.26945   0.77288   1.000
    O740    O    0.26223   0.27329   0.75164   1.000
    O741    O    0.22508   0.26945   0.73259   1.000
    O742    O    0.27329   0.26223   0.71283   1.000
    O743    O    0.26945   0.22508   0.77288   1.000
    O744    O    0.26945   0.22508   0.73259   1.000
    O745    O    0.27329   0.26223   0.75164   1.000
    O746    O    0.25713   0.22380   0.77970   1.000
    O747    O    0.25713   0.22380   0.73938   1.000
    O748    O    0.22380   0.25713   0.77970   1.000
    O749    O    0.22380   0.25713   0.73938   1.000
    Zr750   Zr   0.62500   0.31008   0.93992   1.000
    O751    O    0.59723   0.31660   0.93039   1.000
    O752    O    0.61819   0.30187   0.97604   1.000
    O753    O    0.61819   0.27849   0.95280   1.000
    O754    O    0.59598   0.33830   0.95253   1.000
    O755    O    0.63181   0.29720   0.97151   1.000
    O756    O    0.65277   0.31961   0.93340   1.000
    O757    O    0.63181   0.27396   0.94813   1.000
    O758    O    0.65402   0.29747   0.91170   1.000
    O759    O    0.64709   0.30927   0.90448   1.000
    O760    O    0.64597   0.33138   0.92602   1.000
    O761    O    0.60403   0.32398   0.91862   1.000
    O762    O    0.60291   0.34552   0.94073   1.000
    Zr763   Zr   0.33064   0.33064   0.82087   1.000
    O764    O    0.35338   0.34230   0.78668   1.000
    O765    O    0.33841   0.29389   0.83693   1.000
    O766    O    0.32739   0.31632   0.80177   1.000
    O767    O    0.36544   0.31982   0.82024   1.000
    O768    O    0.35834   0.32388   0.83108   1.000
    O769    O    0.32388   0.35834   0.83108   1.000
    O770    O    0.29787   0.33140   0.84783   1.000
    O771    O    0.33140   0.29788   0.84783   1.000
    O772    O    0.31982   0.36544   0.82024   1.000
    O773    O    0.34230   0.35338   0.78668   1.000
    O774    O    0.29389   0.33841   0.83693   1.000
    O775    O    0.31632   0.32739   0.80177   1.000
    Zr776   Zr   0.51785   0.33064   0.82087   1.000
    O777    O    0.49451   0.36544   0.82024   1.000
    O778    O    0.51764   0.35338   0.78668   1.000
    O779    O    0.53077   0.33841   0.83693   1.000
    O780    O    0.55452   0.32739   0.80177   1.000
    O781    O    0.51764   0.34230   0.78668   1.000
    O782    O    0.49451   0.31982   0.82024   1.000
    O783    O    0.55452   0.31632   0.80177   1.000
    O784    O    0.53077   0.29389   0.83693   1.000
    O785    O    0.48670   0.32388   0.83108   1.000
    O786    O    0.52290   0.29788   0.84783   1.000
    O787    O    0.52290   0.33140   0.84783   1.000
    O788    O    0.48670   0.35834   0.83108   1.000
    Zr789   Zr   0.63752   0.45416   0.45416   1.000
    O790    O    0.61429   0.45426   0.44320   1.000
    O791    O    0.66064   0.43850   0.42743   1.000
    O792    O    0.61429   0.48826   0.44320   1.000
    O793    O    0.66064   0.47342   0.42743   1.000
    O794    O    0.61429   0.44320   0.48826   1.000
    O795    O    0.61429   0.44320   0.45426   1.000
    O796    O    0.66064   0.42743   0.47342   1.000
    O797    O    0.66064   0.42743   0.43850   1.000
    O798    O    0.66064   0.43850   0.47342   1.000
    O799    O    0.66064   0.47342   0.43850   1.000
    O800    O    0.61429   0.48826   0.45426   1.000
    O801    O    0.61429   0.45426   0.48826   1.000
    Zr802   Zr   0.45416   0.45416   0.63752   1.000
    O803    O    0.42743   0.43850   0.66064   1.000
    O804    O    0.44320   0.48826   0.61429   1.000
    O805    O    0.44320   0.45426   0.61429   1.000
    O806    O    0.42743   0.47342   0.66064   1.000
    O807    O    0.43850   0.47342   0.66064   1.000
    O808    O    0.45426   0.48826   0.61429   1.000
    O809    O    0.48826   0.45426   0.61429   1.000
    O810    O    0.47342   0.43850   0.66064   1.000
    O811    O    0.43850   0.42743   0.66064   1.000
    O812    O    0.47342   0.42743   0.66064   1.000
    O813    O    0.45426   0.44320   0.61429   1.000
    O814    O    0.48826   0.44320   0.61429   1.000
    Zr815   Zr   0.45416   0.63752   0.45416   1.000
    O816    O    0.48826   0.61429   0.45426   1.000
    O817    O    0.45426   0.61429   0.48826   1.000
    O818    O    0.47342   0.66064   0.43850   1.000
    O819    O    0.43850   0.66064   0.47342   1.000
    O820    O    0.44320   0.61429   0.45426   1.000
    O821    O    0.42743   0.66064   0.43850   1.000
    O822    O    0.44320   0.61429   0.48826   1.000
    O823    O    0.42743   0.66064   0.47342   1.000
    O824    O    0.43850   0.66064   0.42743   1.000
    O825    O    0.45426   0.61429   0.44320   1.000
    O826    O    0.48826   0.61429   0.44320   1.000
    O827    O    0.47342   0.66064   0.42743   1.000
    Zr828   Zr   0.45416   0.45416   0.45416   1.000
    O829    O    0.45426   0.48826   0.44320   1.000
    O830    O    0.47342   0.43850   0.42743   1.000
    O831    O    0.48826   0.45426   0.44320   1.000
    O832    O    0.43850   0.47342   0.42743   1.000
    O833    O    0.44320   0.45426   0.48826   1.000
    O834    O    0.44320   0.48826   0.45426   1.000
    O835    O    0.42743   0.43850   0.47342   1.000
    O836    O    0.42743   0.47342   0.43850   1.000
    O837    O    0.47342   0.42743   0.43850   1.000
    O838    O    0.48826   0.44320   0.45426   1.000
    O839    O    0.43850   0.42743   0.47342   1.000
    O840    O    0.45426   0.44320   0.48826   1.000
    Zr841   Zr   0.79584   0.79584   0.61248   1.000
    O842    O    0.80680   0.79574   0.63571   1.000
    O843    O    0.80680   0.76174   0.63571   1.000
    O844    O    0.82257   0.77658   0.58936   1.000
    O845    O    0.82257   0.81150   0.58936   1.000
    O846    O    0.77658   0.82257   0.58936   1.000
    O847    O    0.79574   0.80680   0.63571   1.000
    O848    O    0.76174   0.80680   0.63571   1.000
    O849    O    0.81150   0.82257   0.58936   1.000
    O850    O    0.79574   0.76174   0.63571   1.000
    O851    O    0.81150   0.77658   0.58936   1.000
    O852    O    0.77658   0.81150   0.58936   1.000
    O853    O    0.76174   0.79574   0.63571   1.000
    Zr854   Zr   0.79584   0.79584   0.79584   1.000
    O855    O    0.76174   0.80680   0.79574   1.000
    O856    O    0.81150   0.82257   0.77658   1.000
    O857    O    0.77658   0.82257   0.81150   1.000
    O858    O    0.79574   0.80680   0.76174   1.000
    O859    O    0.82257   0.77658   0.81150   1.000
    O860    O    0.82257   0.81150   0.77658   1.000
    O861    O    0.80680   0.76174   0.79574   1.000
    O862    O    0.80680   0.79574   0.76174   1.000
    O863    O    0.81150   0.77658   0.82257   1.000
    O864    O    0.77658   0.81150   0.82257   1.000
    O865    O    0.76174   0.79574   0.80680   1.000
    O866    O    0.79574   0.76174   0.80680   1.000
    Zr867   Zr   0.79584   0.61248   0.79584   1.000
    O868    O    0.77658   0.58936   0.81150   1.000
    O869    O    0.81150   0.58936   0.77658   1.000
    O870    O    0.76174   0.63571   0.79574   1.000
    O871    O    0.79574   0.63571   0.76174   1.000
    O872    O    0.81150   0.58936   0.82257   1.000
    O873    O    0.79574   0.63571   0.80680   1.000
    O874    O    0.76174   0.63571   0.80680   1.000
    O875    O    0.77658   0.58936   0.82257   1.000
    O876    O    0.80680   0.63571   0.79574   1.000
    O877    O    0.82257   0.58936   0.81150   1.000
    O878    O    0.82257   0.58936   0.77658   1.000
    O879    O    0.80680   0.63571   0.76174   1.000
    Zr880   Zr   0.61248   0.79584   0.79584   1.000
    O881    O    0.63571   0.76174   0.80680   1.000
    O882    O    0.58936   0.81150   0.82257   1.000
    O883    O    0.58936   0.77658   0.82257   1.000
    O884    O    0.63571   0.79574   0.80680   1.000
    O885    O    0.58936   0.77658   0.81150   1.000
    O886    O    0.58936   0.81150   0.77658   1.000
    O887    O    0.63571   0.76174   0.79574   1.000
    O888    O    0.63571   0.79574   0.76174   1.000
    O889    O    0.63571   0.80680   0.79574   1.000
    O890    O    0.58936   0.82257   0.81150   1.000
    O891    O    0.63571   0.80680   0.76174   1.000
    O892    O    0.58936   0.82257   0.77658   1.000
    Zr893   Zr   0.12500   0.31009   0.62500   1.000
    O894    O    0.09422   0.31961   0.65277   1.000
    O895    O    0.13681   0.29747   0.65402   1.000
    O896    O    0.09948   0.29720   0.63181   1.000
    O897    O    0.14611   0.27396   0.63181   1.000
    O898    O    0.11319   0.33830   0.59598   1.000
    O899    O    0.10389   0.30188   0.61819   1.000
    O900    O    0.15052   0.27849   0.61819   1.000
    O901    O    0.15578   0.31660   0.59723   1.000
    O902    O    0.09664   0.33138   0.64597   1.000
    O903    O    0.11083   0.34552   0.60291   1.000
    O904    O    0.15336   0.32398   0.60403   1.000
    O905    O    0.13917   0.30927   0.64709   1.000
    Zr906   Zr   0.62500   0.12500   0.93992   1.000
    O907    O    0.61819   0.15052   0.95280   1.000
    O908    O    0.61819   0.10389   0.97604   1.000
    O909    O    0.59723   0.15578   0.93039   1.000
    O910    O    0.59598   0.11319   0.95253   1.000
    O911    O    0.64709   0.13917   0.90448   1.000
    O912    O    0.64597   0.09664   0.92602   1.000
    O913    O    0.60403   0.15336   0.91862   1.000
    O914    O    0.60291   0.11083   0.94073   1.000
    O915    O    0.65402   0.13681   0.91170   1.000
    O916    O    0.63181   0.09948   0.97151   1.000
    O917    O    0.63181   0.14611   0.94813   1.000
    O918    O    0.65277   0.09422   0.93340   1.000
    Zr919   Zr   0.73215   0.91936   0.91936   1.000
    O920    O    0.69548   0.93368   0.92261   1.000
    O921    O    0.71923   0.95611   0.91159   1.000
    O922    O    0.73236   0.90770   0.89662   1.000
    O923    O    0.75549   0.93018   0.88456   1.000
    O924    O    0.76330   0.92612   0.89166   1.000
    O925    O    0.72710   0.95212   0.91860   1.000
    O926    O    0.72710   0.91860   0.95213   1.000
    O927    O    0.76330   0.89166   0.92612   1.000
    O928    O    0.73236   0.89662   0.90770   1.000
    O929    O    0.69548   0.92261   0.93368   1.000
    O930    O    0.71923   0.91159   0.95611   1.000
    O931    O    0.75549   0.88456   0.93018   1.000
    Zr932   Zr   0.74843   0.74843   0.25157   1.000
    O933    O    0.77288   0.73259   0.22508   1.000
    O934    O    0.75164   0.71283   0.26223   1.000
    O935    O    0.73259   0.77288   0.22508   1.000
    O936    O    0.71283   0.75164   0.26223   1.000
    O937    O    0.77288   0.73259   0.26945   1.000
    O938    O    0.71283   0.75164   0.27329   1.000
    O939    O    0.75164   0.71283   0.27329   1.000
    O940    O    0.73259   0.77288   0.26945   1.000
    O941    O    0.77970   0.73938   0.22380   1.000
    O942    O    0.73938   0.77970   0.22380   1.000
    O943    O    0.77970   0.73938   0.25713   1.000
    O944    O    0.73938   0.77970   0.25713   1.000
    Zr945   Zr   0.74843   0.25157   0.25157   1.000
    O946    O    0.73259   0.22508   0.26945   1.000
    O947    O    0.71283   0.26223   0.27329   1.000
    O948    O    0.77288   0.22508   0.26945   1.000
    O949    O    0.75164   0.26223   0.27329   1.000
    O950    O    0.71283   0.27329   0.26223   1.000
    O951    O    0.77288   0.26945   0.22508   1.000
    O952    O    0.73259   0.26945   0.22508   1.000
    O953    O    0.75164   0.27329   0.26223   1.000
    O954    O    0.73938   0.22380   0.25713   1.000
    O955    O    0.73938   0.25713   0.22380   1.000
    O956    O    0.77970   0.25713   0.22380   1.000
    O957    O    0.77970   0.22380   0.25713   1.000
    Zr958   Zr   0.25157   0.74843   0.74843   1.000
    O959    O    0.22508   0.77288   0.73259   1.000
    O960    O    0.22508   0.73259   0.77288   1.000
    O961    O    0.26223   0.71283   0.75164   1.000
    O962    O    0.26223   0.75164   0.71283   1.000
    O963    O    0.26945   0.77288   0.73259   1.000
    O964    O    0.27329   0.71283   0.75164   1.000
    O965    O    0.26945   0.73259   0.77288   1.000
    O966    O    0.27329   0.75164   0.71283   1.000
    O967    O    0.25713   0.77970   0.73938   1.000
    O968    O    0.25713   0.73938   0.77970   1.000
    O969    O    0.22380   0.77970   0.73938   1.000
    O970    O    0.22380   0.73938   0.77970   1.000
    Zr971   Zr   0.12500   0.93991   0.62500   1.000
    O972    O    0.13681   0.91170   0.65402   1.000
    O973    O    0.09948   0.97151   0.63181   1.000
    O974    O    0.14611   0.94812   0.63181   1.000
    O975    O    0.09422   0.93340   0.65277   1.000
    O976    O    0.15336   0.91862   0.60403   1.000
    O977    O    0.13917   0.90448   0.64709   1.000
    O978    O    0.09664   0.92602   0.64597   1.000
    O979    O    0.11083   0.94073   0.60291   1.000
    O980    O    0.11319   0.95253   0.59598   1.000
    O981    O    0.15052   0.95280   0.61819   1.000
    O982    O    0.15578   0.93039   0.59723   1.000
    O983    O    0.10389   0.97604   0.61819   1.000
    Zr984   Zr   0.31008   0.93991   0.62500   1.000
    O985    O    0.30927   0.90448   0.64709   1.000
    O986    O    0.34552   0.94073   0.60291   1.000
    O987    O    0.33138   0.92602   0.64597   1.000
    O988    O    0.32398   0.91862   0.60403   1.000
    O989    O    0.29747   0.91170   0.65402   1.000
    O990    O    0.29720   0.97151   0.63181   1.000
    O991    O    0.27396   0.94812   0.63181   1.000
    O992    O    0.31961   0.93340   0.65277   1.000
    O993    O    0.30188   0.97604   0.61819   1.000
    O994    O    0.33830   0.95253   0.59598   1.000
    O995    O    0.31660   0.93039   0.59723   1.000
    O996    O    0.27849   0.95280   0.61819   1.000
    Zr997   Zr   0.93991   0.12500   0.62500   1.000
    O998    O    0.94073   0.11083   0.60291   1.000
    O999    O    0.92602   0.09664   0.64597   1.000
    O1000   O    0.90448   0.13917   0.64709   1.000
    O1001   O    0.91862   0.15336   0.60403   1.000
    O1002   O    0.95253   0.11319   0.59598   1.000
    O1003   O    0.95280   0.15052   0.61819   1.000
    O1004   O    0.93039   0.15578   0.59723   1.000
    O1005   O    0.97604   0.10389   0.61819   1.000
    O1006   O    0.93340   0.09422   0.65277   1.000
    O1007   O    0.91170   0.13681   0.65402   1.000
    O1008   O    0.94813   0.14611   0.63181   1.000
    O1009   O    0.97151   0.09948   0.63181   1.000
    Zr1010  Zr   0.62500   0.31008   0.12500   1.000
    O1011   O    0.60403   0.32398   0.15336   1.000
    O1012   O    0.60291   0.34552   0.11083   1.000
    O1013   O    0.64709   0.30927   0.13917   1.000
    O1014   O    0.64597   0.33138   0.09664   1.000
    O1015   O    0.61819   0.30188   0.10389   1.000
    O1016   O    0.61819   0.27849   0.15052   1.000
    O1017   O    0.59598   0.33830   0.11319   1.000
    O1018   O    0.59723   0.31660   0.15578   1.000
    O1019   O    0.65277   0.31961   0.09422   1.000
    O1020   O    0.65402   0.29747   0.13681   1.000
    O1021   O    0.63181   0.29720   0.09948   1.000
    O1022   O    0.63181   0.27396   0.14611   1.000
    Zr1023  Zr   0.91936   0.91936   0.73215   1.000
    O1024   O    0.95611   0.91159   0.71923   1.000
    O1025   O    0.93018   0.88456   0.75549   1.000
    O1026   O    0.90770   0.89662   0.73236   1.000
    O1027   O    0.93368   0.92261   0.69548   1.000
    O1028   O    0.95212   0.91860   0.72710   1.000
    O1029   O    0.91860   0.95213   0.72710   1.000
    O1030   O    0.92612   0.89166   0.76330   1.000
    O1031   O    0.89166   0.92612   0.76330   1.000
    O1032   O    0.89662   0.90770   0.73236   1.000
    O1033   O    0.91159   0.95611   0.71923   1.000
    O1034   O    0.88456   0.93018   0.75549   1.000
    O1035   O    0.92261   0.93368   0.69548   1.000
    Zr1036  Zr   0.73215   0.42913   0.91936   1.000
    O1037   O    0.69548   0.44823   0.93368   1.000
    O1038   O    0.75549   0.42976   0.93018   1.000
    O1039   O    0.73236   0.46332   0.90770   1.000
    O1040   O    0.71923   0.41307   0.95611   1.000
    O1041   O    0.76330   0.41892   0.92612   1.000
    O1042   O    0.76330   0.41892   0.89166   1.000
    O1043   O    0.72710   0.40217   0.91860   1.000
    O1044   O    0.72710   0.40217   0.95213   1.000
    O1045   O    0.75549   0.42976   0.88456   1.000
    O1046   O    0.69548   0.44823   0.92261   1.000
    O1047   O    0.71923   0.41307   0.91159   1.000
    O1048   O    0.73236   0.46332   0.89662   1.000
    Zr1049  Zr   0.31008   0.12500   0.62500   1.000
    O1050   O    0.34552   0.11083   0.60291   1.000
    O1051   O    0.33138   0.09664   0.64597   1.000
    O1052   O    0.32398   0.15336   0.60403   1.000
    O1053   O    0.30927   0.13917   0.64709   1.000
    O1054   O    0.29747   0.13681   0.65402   1.000
    O1055   O    0.29720   0.09948   0.63181   1.000
    O1056   O    0.27396   0.14611   0.63181   1.000
    O1057   O    0.31961   0.09422   0.65277   1.000
    O1058   O    0.33830   0.11319   0.59598   1.000
    O1059   O    0.31660   0.15578   0.59723   1.000
    O1060   O    0.30187   0.10389   0.61819   1.000
    O1061   O    0.27849   0.15052   0.61819   1.000
    Zr1062  Zr   0.33064   0.51785   0.33064   1.000
    O1063   O    0.31982   0.49451   0.36544   1.000
    O1064   O    0.29389   0.53077   0.33841   1.000
    O1065   O    0.34230   0.51764   0.35338   1.000
    O1066   O    0.31632   0.55452   0.32739   1.000
    O1067   O    0.33841   0.53077   0.29389   1.000
    O1068   O    0.35338   0.51764   0.34230   1.000
    O1069   O    0.36544   0.49451   0.31982   1.000
    O1070   O    0.32739   0.55452   0.31632   1.000
    O1071   O    0.32388   0.48670   0.35834   1.000
    O1072   O    0.35834   0.48670   0.32388   1.000
    O1073   O    0.33140   0.52290   0.29788   1.000
    O1074   O    0.29788   0.52290   0.33140   1.000
    Zr1075  Zr   0.12500   0.31008   0.93992   1.000
    O1076   O    0.15336   0.32398   0.91862   1.000
    O1077   O    0.11083   0.34552   0.94073   1.000
    O1078   O    0.13917   0.30927   0.90448   1.000
    O1079   O    0.09664   0.33138   0.92602   1.000
    O1080   O    0.09422   0.31961   0.93340   1.000
    O1081   O    0.09948   0.29720   0.97151   1.000
    O1082   O    0.13681   0.29747   0.91170   1.000
    O1083   O    0.14611   0.27396   0.94813   1.000
    O1084   O    0.15578   0.31660   0.93039   1.000
    O1085   O    0.10389   0.30187   0.97604   1.000
    O1086   O    0.11319   0.33830   0.95253   1.000
    O1087   O    0.15052   0.27849   0.95280   1.000
loop_
    _geom_bond_atom_site_label_1
    _geom_bond_atom_site_label_2
    _geom_bond_distance
    _geom_bond_site_symmetry_2
    _ccdc_geom_bond_type
    Zr204  O205      1.91751      .   S
    N74    O205      4.09965  1_545   S
    Zr204  O206      1.91864      .   S
    N37    O206      4.09765      .   S
    Zr204  O207      1.95573      .   S
    N75    O207      4.16036      .   S
    Zr204  O208      1.91188      .   S
    N72    O208      4.09013      .   S
    Zr204  O209      1.93200      .   S
    N91    O209      4.05882      .   S
    Zr204  O210      1.95976      .   S
    N75    O210      4.15197      .   S
    Zr204  O211      1.93200      .   S
    N72    O211      4.05882      .   S
    Zr204  O212      1.95976      .   S
    N167   O212      4.15197      .   S
    Zr204  O213      1.95573      .   S
    N167   O213      4.16036      .   S
    Zr204  O214      1.91864      .   S
    N74    O214      4.09765  1_545   S
    Zr204  O215      1.91188      .   S
    N91    O215      4.09013      .   S
    Zr204  O216      1.91751      .   S
    N37    O216      4.09965      .   S
    Zr217  O218      1.94947      .   S
    N87    O218      4.13370      .   S
    Zr217  O219      1.90384      .   S
    N91    O219      4.04131      .   S
    Zr217  O220      1.92308      .   S
    N36    O220      4.10005      .   S
    Zr217  O221      1.89679      .   S
    N35    O221      4.04041      .   S
    Zr217  O222      1.94947      .   S
    N87    O222      4.13370      .   S
    Zr217  O223      1.90384      .   S
    N71    O223      4.04131      .   S
    Zr217  O224      1.92308      .   S
    N26    O224      4.10005      .   S
    Zr217  O225      1.89679      .   S
    N35    O225      4.04041      .   S
    Zr217  O226      1.89887      .   S
    N91    O226      4.04970      .   S
    Zr217  O227      1.89887      .   S
    N71    O227      4.04970      .   S
    Zr217  O228      1.93036      .   S
    N26    O228      4.08934      .   S
    Zr217  O229      1.93036      .   S
    N36    O229      4.08934      .   S
    Zr230  O231      1.91863      .   S
    N49    O231      4.09762      .   S
    Zr230  O232      1.91188      .   S
    N133   O232      4.09013      .   S
    Zr230  O233      1.91746      .   S
    N165   O233      4.09966  1_545   S
    Zr230  O234      1.95574      .   S
    N164   O234      4.16037      .   S
    Zr230  O235      1.93194      .   S
    N133   O235      4.05889      .   S
    Zr230  O236      1.95978      .   S
    N168   O236      4.15197      .   S
    Zr230  O237      1.93194      .   S
    N27    O237      4.05889      .   S
    Zr230  O238      1.95978      .   S
    N164   O238      4.15197      .   S
    Zr230  O239      1.91188      .   S
    N27    O239      4.09013      .   S
    Zr230  O240      1.95574      .   S
    N168   O240      4.16037      .   S
    Zr230  O241      1.91863      .   S
    N165   O241      4.09762  1_545   S
    Zr230  O242      1.91746      .   S
    N49    O242      4.09966      .   S
    Zr243  O244      1.92307      .   S
    N60    O244      4.10008      .   S
    Zr243  O245      1.90384      .   S
    N27    O245      4.04131      .   S
    Zr243  O246      1.89677      .   S
    N45    O246      4.04042      .   S
    Zr243  O247      1.94960      .   S
    N39    O247      4.13358      .   S
    Zr243  O248      1.89675      .   S
    N45    O248      4.04042      .   S
    Zr243  O249      1.90384      .   S
    N44    O249      4.04131      .   S
    Zr243  O250      1.94957      .   S
    N39    O250      4.13357      .   S
    Zr243  O251      1.92301      .   S
    N26    O251      4.10013      .   S
    Zr243  O252      1.93039      .   S
    N60    O252      4.08931      .   S
    Zr243  O253      1.89887      .   S
    N44    O253      4.04970      .   S
    Zr243  O254      1.93043      .   S
    N26    O254      4.08926      .   S
    Zr243  O255      1.89887      .   S
    N27    O255      4.04970      .   S
    Zr256  O257      1.91188      .   S
    N7     O257      4.09013      .   S
    Zr256  O258      1.91864      .   S
    N11    O258      4.09765      .   S
    Zr256  O259      1.91751      .   S
    N74    O259      4.09965  1_455   S
    Zr256  O260      1.95573      .   S
    N5     O260      4.16036      .   S
    Zr256  O261      1.91751      .   S
    N11    O261      4.09965      .   S
    Zr256  O262      1.95573      .   S
    N81    O262      4.16036      .   S
    Zr256  O263      1.91188      .   S
    N2     O263      4.09013      .   S
    Zr256  O264      1.91864      .   S
    N74    O264      4.09765  1_455   S
    Zr256  O265      1.95976      .   S
    N5     O265      4.15197      .   S
    Zr256  O266      1.95976      .   S
    N81    O266      4.15197      .   S
    Zr256  O267      1.93200      .   S
    N2     O267      4.05882      .   S
    Zr256  O268      1.93200      .   S
    N7     O268      4.05882      .   S
    Zr269  O270      1.92308      .   S
    N10    O270      4.10005      .   S
    Zr269  O271      1.89679      .   S
    N9     O271      4.04041      .   S
    Zr269  O272      1.90384      .   S
    N2     O272      4.04131      .   S
    Zr269  O273      1.94947      .   S
    N1     O273      4.13370      .   S
    Zr269  O274      1.89887      .   S
    N6     O274      4.04970      .   S
    Zr269  O275      1.93036      .   S
    N10    O275      4.08934      .   S
    Zr269  O276      1.93036      .   S
    N130   O276      4.08934      .   S
    Zr269  O277      1.89887      .   S
    N2     O277      4.04970      .   S
    Zr269  O278      1.90384      .   S
    N6     O278      4.04131      .   S
    Zr269  O279      1.89679      .   S
    N9     O279      4.04041      .   S
    Zr269  O280      1.92308      .   S
    N130   O280      4.10005      .   S
    Zr269  O281      1.94947      .   S
    N1     O281      4.13370      .   S
    Zr282  O283      1.90384      .   S
    N20    O283      4.04131      .   S
    Zr282  O284      1.89684      .   S
    N16    O284      4.04041      .   S
    Zr282  O285      1.92305      .   S
    N19    O285      4.10009      .   S
    Zr282  O286      1.94961      .   S
    N14    O286      4.13356      .   S
    Zr282  O287      1.89887      .   S
    N20    O287      4.04970      .   S
    Zr282  O288      1.93041      .   S
    N19    O288      4.08930      .   S
    Zr282  O289      1.89887      .   S
    N13    O289      4.04970      .   S
    Zr282  O290      1.93041      .   S
    N23    O290      4.08930      .   S
    Zr282  O291      1.90384      .   S
    N13    O291      4.04131      .   S
    Zr282  O292      1.94961      .   S
    N14    O292      4.13356      .   S
    Zr282  O293      1.89684      .   S
    N16    O293      4.04041      .   S
    Zr282  O294      1.92305      .   S
    N23    O294      4.10009      .   S
    Zr295  O296      1.90384      .   S
    N53    O296      4.04131      .   S
    Zr295  O297      1.89677      .   S
    N84    O297      4.04042      .   S
    Zr295  O298      1.92307      .   S
    N135   O298      4.10008      .   S
    Zr295  O299      1.94960      .   S
    N186   O299      4.13358      .   S
    Zr295  O300      1.93039      .   S
    N135   O300      4.08931      .   S
    Zr295  O301      1.93043      .   S
    N10    O301      4.08926      .   S
    Zr295  O302      1.89887      .   S
    N51    O302      4.04970      .   S
    Zr295  O303      1.89887      .   S
    N53    O303      4.04970      .   S
    Zr295  O304      1.92301      .   S
    N10    O304      4.10013      .   S
    Zr295  O305      1.89675      .   S
    N84    O305      4.04042      .   S
    Zr295  O306      1.94957      .   S
    N186   O306      4.13357      .   S
    Zr295  O307      1.90384      .   S
    N51    O307      4.04131      .   S
    Zr308  O309      1.90384      .   S
    N69    O309      4.04131      .   S
    Zr308  O310      1.92301      .   S
    N36    O310      4.10013      .   S
    Zr308  O311      1.89675      .   S
    N85    O311      4.04042      .   S
    Zr308  O312      1.94957      .   S
    N31    O312      4.13357      .   S
    Zr308  O313      1.92307      .   S
    N60    O313      4.10008      .   S
    Zr308  O314      1.89677      .   S
    N85    O314      4.04042      .   S
    Zr308  O315      1.90384      .   S
    N52    O315      4.04131      .   S
    Zr308  O316      1.94960      .   S
    N31    O316      4.13358      .   S
    Zr308  O317      1.93039      .   S
    N60    O317      4.08931      .   S
    Zr308  O318      1.89887      .   S
    N69    O318      4.04970      .   S
    Zr308  O319      1.89887      .   S
    N52    O319      4.04970      .   S
    Zr308  O320      1.93043      .   S
    N36    O320      4.08926      .   S
    Zr321  O322      1.95574      .   S
    N57    O322      4.16037      .   S
    Zr321  O323      1.91746      .   S
    N174   O323      4.09966      .   S
    Zr321  O324      1.91863      .   S
    N22    O324      4.09762  1_455   S
    Zr321  O325      1.91188      .   S
    N53    O325      4.09013      .   S
    Zr321  O326      1.91746      .   S
    N22    O326      4.09966  1_455   S
    Zr321  O327      1.91188      .   S
    N106   O327      4.09013      .   S
    Zr321  O328      1.91863      .   S
    N174   O328      4.09762      .   S
    Zr321  O329      1.95574      .   S
    N189   O329      4.16037      .   S
    Zr321  O330      1.95978      .   S
    N57    O330      4.15197      .   S
    Zr321  O331      1.93194      .   S
    N53    O331      4.05889      .   S
    Zr321  O332      1.95978      .   S
    N189   O332      4.15197      .   S
    Zr321  O333      1.93194      .   S
    N106   O333      4.05889      .   S
    Zr334  O335      1.90384      .   S
    N106   O335      4.04131      .   S
    Zr334  O336      1.89677      .   S
    N184   O336      4.04042      .   S
    Zr334  O337      1.94960      .   S
    N105   O337      4.13358      .   S
    Zr334  O338      1.92307      .   S
    N188   O338      4.10008      .   S
    Zr334  O339      1.89887      .   S
    N106   O339      4.04970      .   S
    Zr334  O340      1.89887      .   S
    N21    O340      4.04970  1_455   S
    Zr334  O341      1.93043      .   S
    N187   O341      4.08926      .   S
    Zr334  O342      1.93039      .   S
    N188   O342      4.08931      .   S
    Zr334  O343      1.90384      .   S
    N21    O343      4.04131  1_455   S
    Zr334  O344      1.94957      .   S
    N105   O344      4.13357      .   S
    Zr334  O345      1.92301      .   S
    N187   O345      4.10013      .   S
    Zr334  O346      1.89675      .   S
    N184   O346      4.04042      .   S
    Zr347  O348      1.92308      .   S
    N103   O348      4.10005      .   S
    Zr347  O349      1.90384      .   S
    N7     O349      4.04131  1_545   S
    Zr347  O350      1.89679      .   S
    N68    O350      4.04041      .   S
    Zr347  O351      1.94947      .   S
    N82    O351      4.13370      .   S
    Zr347  O352      1.89679      .   S
    N68    O352      4.04041      .   S
    Zr347  O353      1.90384      .   S
    N72    O353      4.04131  1_455   S
    Zr347  O354      1.92308      .   S
    N88    O354      4.10005      .   S
    Zr347  O355      1.94947      .   S
    N82    O355      4.13370      .   S
    Zr347  O356      1.93036      .   S
    N103   O356      4.08934      .   S
    Zr347  O357      1.89887      .   S
    N7     O357      4.04970  1_545   S
    Zr347  O358      1.93036      .   S
    N88    O358      4.08934      .   S
    Zr347  O359      1.89887      .   S
    N72    O359      4.04970  1_455   S
    Zr360  O361      1.95576      .   S
    N38    O361      4.16041      .   S
    Zr360  O362      1.91188      .   S
    N64    O362      4.09013      .   S
    Zr360  O363      1.91865      .   S
    N49    O363      4.09768      .   S
    Zr360  O364      1.91748      .   S
    N172   O364      4.09965  1_545   S
    Zr360  O365      1.91188      .   S
    N44    O365      4.09013      .   S
    Zr360  O366      1.95577      .   S
    N120   O366      4.16046      .   S
    Zr360  O367      1.91864      .   S
    N172   O367      4.09764  1_545   S
    Zr360  O368      1.91755      .   S
    N49    O368      4.09964      .   S
    Zr360  O369      1.95981      .   S
    N38    O369      4.15199      .   S
    Zr360  O370      1.93200      .   S
    N64    O370      4.05883      .   S
    Zr360  O371      1.93195      .   S
    N44    O371      4.05886      .   S
    Zr360  O372      1.95987      .   S
    N120   O372      4.15200      .   S
    Zr373  O374      1.91748      .   S
    N61    O374      4.09965      .   S
    Zr373  O375      1.91188      .   S
    N41    O375      4.09013      .   S
    Zr373  O376      1.95576      .   S
    N94    O376      4.16041      .   S
    Zr373  O377      1.91865      .   S
    N161   O377      4.09768      .   S
    Zr373  O378      1.95981      .   S
    N94    O378      4.15199      .   S
    Zr373  O379      1.93195      .   S
    N134   O379      4.05886      .   S
    Zr373  O380      1.95987      .   S
    N89    O380      4.15200      .   S
    Zr373  O381      1.93200      .   S
    N41    O381      4.05883      .   S
    Zr373  O382      1.91864      .   S
    N61    O382      4.09764      .   S
    Zr373  O383      1.91188      .   S
    N134   O383      4.09013      .   S
    Zr373  O384      1.91755      .   S
    N161   O384      4.09964      .   S
    Zr373  O385      1.95577      .   S
    N89    O385      4.16046      .   S
    Zr386  O387      1.91748      .   S
    N109   O387      4.09965  1_554   S
    Zr386  O388      1.91865      .   S
    N80    O388      4.09768      .   S
    Zr386  O389      1.91188      .   S
    N112   O389      4.09013      .   S
    Zr386  O390      1.95576      .   S
    N70    O390      4.16041      .   S
    Zr386  O391      1.91864      .   S
    N109   O391      4.09764  1_554   S
    Zr386  O392      1.91755      .   S
    N80    O392      4.09964      .   S
    Zr386  O393      1.95577      .   S
    N146   O393      4.16046      .   S
    Zr386  O394      1.91188      .   S
    N163   O394      4.09013      .   S
    Zr386  O395      1.95981      .   S
    N70    O395      4.15199      .   S
    Zr386  O396      1.95987      .   S
    N146   O396      4.15200      .   S
    Zr386  O397      1.93195      .   S
    N163   O397      4.05886      .   S
    Zr386  O398      1.93200      .   S
    N112   O398      4.05883      .   S
    Zr399  O400      1.94957      .   S
    N182   O400      4.13357      .   S
    Zr399  O401      1.90384      .   S
    N163   O401      4.04131      .   S
    Zr399  O402      1.92301      .   S
    N29    O402      4.10013      .   S
    Zr399  O403      1.89675      .   S
    N28    O403      4.04042      .   S
    Zr399  O404      1.93039      .   S
    N178   O404      4.08931      .   S
    Zr399  O405      1.93043      .   S
    N29    O405      4.08926      .   S
    Zr399  O406      1.89887      .   S
    N163   O406      4.04970      .   S
    Zr399  O407      1.89887      .   S
    N159   O407      4.04970      .   S
    Zr399  O408      1.92307      .   S
    N178   O408      4.10008      .   S
    Zr399  O409      1.94960      .   S
    N182   O409      4.13358      .   S
    Zr399  O410      1.89677      .   S
    N28    O410      4.04042      .   S
    Zr399  O411      1.90384      .   S
    N159   O411      4.04131      .   S
    Zr412  O413      1.91746      .   S
    N80    O413      4.09966      .   S
    Zr412  O414      1.95574      .   S
    N93    O414      4.16037      .   S
    Zr412  O415      1.91863      .   S
    N92    O415      4.09762  1_554   S
    Zr412  O416      1.91188      .   S
    N159   O416      4.09013      .   S
    Zr412  O417      1.93194      .   S
    N79    O417      4.05889      .   S
    Zr412  O418      1.95978      .   S
    N93    O418      4.15197      .   S
    Zr412  O419      1.93194      .   S
    N159   O419      4.05889      .   S
    Zr412  O420      1.95978      .   S
    N183   O420      4.15197      .   S
    Zr412  O421      1.91188      .   S
    N79    O421      4.09013      .   S
    Zr412  O422      1.91746      .   S
    N92    O422      4.09966  1_554   S
    Zr412  O423      1.95574      .   S
    N183   O423      4.16037      .   S
    Zr412  O424      1.91863      .   S
    N80    O424      4.09762      .   S
    Zr425  O426      1.90384      .   S
    N79    O426      4.04131      .   S
    Zr425  O427      1.94960      .   S
    N78    O427      4.13358      .   S
    Zr425  O428      1.92307      .   S
    N145   O428      4.10008      .   S
    Zr425  O429      1.89677      .   S
    N144   O429      4.04042      .   S
    Zr425  O430      1.89675      .   S
    N144   O430      4.04042      .   S
    Zr425  O431      1.94957      .   S
    N78    O431      4.13357      .   S
    Zr425  O432      1.92301      .   S
    N141   O432      4.10013      .   S
    Zr425  O433      1.90384      .   S
    N77    O433      4.04131  1_554   S
    Zr425  O434      1.89887      .   S
    N77    O434      4.04970  1_554   S
    Zr425  O435      1.89887      .   S
    N79    O435      4.04970      .   S
    Zr425  O436      1.93043      .   S
    N141   O436      4.08926      .   S
    Zr425  O437      1.93039      .   S
    N145   O437      4.08931      .   S
    Zr438  O439      1.94961      .   S
    N111   O439      4.13356      .   S
    Zr438  O440      1.92305      .   S
    N154   O440      4.10009      .   S
    Zr438  O441      1.90384      .   S
    N112   O441      4.04131  1_455   S
    Zr438  O442      1.89684      .   S
    N107   O442      4.04041      .   S
    Zr438  O443      1.89887      .   S
    N112   O443      4.04970  1_455   S
    Zr438  O444      1.93041      .   S
    N108   O444      4.08930      .   S
    Zr438  O445      1.89887      .   S
    N115   O445      4.04970  1_554   S
    Zr438  O446      1.93041      .   S
    N154   O446      4.08930      .   S
    Zr438  O447      1.94961      .   S
    N111   O447      4.13356      .   S
    Zr438  O448      1.90384      .   S
    N115   O448      4.04131  1_554   S
    Zr438  O449      1.89684      .   S
    N107   O449      4.04041      .   S
    Zr438  O450      1.92305      .   S
    N108   O450      4.10009      .   S
    Zr451  O452      1.91751      .   S
    N37    O452      4.09965      .   S
    Zr451  O453      1.91188      .   S
    N71    O453      4.09013      .   S
    Zr451  O454      1.95573      .   S
    N119   O454      4.16036      .   S
    Zr451  O455      1.91864      .   S
    N137   O455      4.09765  1_545   S
    Zr451  O456      1.93200      .   S
    N71    O456      4.05882      .   S
    Zr451  O457      1.95976      .   S
    N119   O457      4.15197      .   S
    Zr451  O458      1.95976      .   S
    N98    O458      4.15197      .   S
    Zr451  O459      1.93200      .   S
    N117   O459      4.05882      .   S
    Zr451  O460      1.91188      .   S
    N117   O460      4.09013      .   S
    Zr451  O461      1.95573      .   S
    N98    O461      4.16036      .   S
    Zr451  O462      1.91751      .   S
    N137   O462      4.09965  1_545   S
    Zr451  O463      1.91864      .   S
    N37    O463      4.09765      .   S
    Zr464  O465      1.89679      .   S
    N140   O465      4.04041      .   S
    Zr464  O466      1.92308      .   S
    N141   O466      4.10005      .   S
    Zr464  O467      1.90384      .   S
    N117   O467      4.04131  1_554   S
    Zr464  O468      1.94947      .   S
    N139   O468      4.13370      .   S
    Zr464  O469      1.90384      .   S
    N4     O469      4.04131  1_545   S
    Zr464  O470      1.89679      .   S
    N140   O470      4.04041      .   S
    Zr464  O471      1.94947      .   S
    N139   O471      4.13370      .   S
    Zr464  O472      1.92308      .   S
    N142   O472      4.10005      .   S
    Zr464  O473      1.89887      .   S
    N117   O473      4.04970  1_554   S
    Zr464  O474      1.93036      .   S
    N141   O474      4.08934      .   S
    Zr464  O475      1.89887      .   S
    N4     O475      4.04970  1_545   S
    Zr464  O476      1.93036      .   S
    N142   O476      4.08934      .   S
    Zr477  O478      1.91865      .   S
    N121   O478      4.09768      .   S
    Zr477  O479      1.95576      .   S
    N99    O479      4.16041      .   S
    Zr477  O480      1.91748      .   S
    N109   O480      4.09965  1_455   S
    Zr477  O481      1.91188      .   S
    N115   O481      4.09013      .   S
    Zr477  O482      1.91188      .   S
    N3     O482      4.09013      .   S
    Zr477  O483      1.95577      .   S
    N110   O483      4.16046      .   S
    Zr477  O484      1.91755      .   S
    N121   O484      4.09964      .   S
    Zr477  O485      1.91864      .   S
    N109   O485      4.09764  1_455   S
    Zr477  O486      1.95981      .   S
    N99    O486      4.15199      .   S
    Zr477  O487      1.95987      .   S
    N110   O487      4.15200      .   S
    Zr477  O488      1.93200      .   S
    N115   O488      4.05883      .   S
    Zr477  O489      1.93195      .   S
    N3     O489      4.05886      .   S
    Zr490  O491      1.95981      .   S
    N179   O491      4.15199      .   S
    Zr490  O492      1.93200      .   S
    N76    O492      4.05883      .   S
    Zr490  O493      1.95987      .   S
    N62    O493      4.15200      .   S
    Zr490  O494      1.93195      .   S
    N77    O494      4.05886      .   S
    Zr490  O495      1.91188      .   S
    N76    O495      4.09013      .   S
    Zr490  O496      1.91865      .   S
    N92    O496      4.09768      .   S
    Zr490  O497      1.91748      .   S
    N61    O497      4.09965      .   S
    Zr490  O498      1.95576      .   S
    N179   O498      4.16041      .   S
    Zr490  O499      1.91755      .   S
    N92    O499      4.09964      .   S
    Zr490  O500      1.95577      .   S
    N62    O500      4.16046      .   S
    Zr490  O501      1.91188      .   S
    N77    O501      4.09013      .   S
    Zr490  O502      1.91864      .   S
    N61    O502      4.09764      .   S
    Zr503  O504      1.91751      .   S
    N11    O504      4.09965      .   S
    Zr503  O505      1.91864      .   S
    N181   O505      4.09765  1_455   S
    Zr503  O506      1.91188      .   S
    N6     O506      4.09013      .   S
    Zr503  O507      1.95573      .   S
    N118   O507      4.16036      .   S
    Zr503  O508      1.95976      .   S
    N100   O508      4.15197      .   S
    Zr503  O509      1.93200      .   S
    N116   O509      4.05882      .   S
    Zr503  O510      1.95976      .   S
    N118   O510      4.15197      .   S
    Zr503  O511      1.93200      .   S
    N6     O511      4.05882      .   S
    Zr503  O512      1.91188      .   S
    N116   O512      4.09013      .   S
    Zr503  O513      1.91751      .   S
    N181   O513      4.09965  1_455   S
    Zr503  O514      1.95573      .   S
    N100   O514      4.16036      .   S
    Zr503  O515      1.91864      .   S
    N11    O515      4.09765      .   S
    Zr516  O517      1.89887      .   S
    N116   O517      4.04970  1_554   S
    Zr516  O518      1.89887      .   S
    N201   O518      4.04970  1_455   S
    Zr516  O519      1.93036      .   S
    N152   O519      4.08934      .   S
    Zr516  O520      1.93036      .   S
    N187   O520      4.08934      .   S
    Zr516  O521      1.92308      .   S
    N152   O521      4.10005      .   S
    Zr516  O522      1.89679      .   S
    N175   O522      4.04041      .   S
    Zr516  O523      1.90384      .   S
    N116   O523      4.04131  1_554   S
    Zr516  O524      1.94947      .   S
    N176   O524      4.13370      .   S
    Zr516  O525      1.94947      .   S
    N176   O525      4.13370      .   S
    Zr516  O526      1.90384      .   S
    N201   O526      4.04131  1_455   S
    Zr516  O527      1.89679      .   S
    N175   O527      4.04041      .   S
    Zr516  O528      1.92308      .   S
    N187   O528      4.10005      .   S
    Zr529  O530      1.91863      .   S
    N121   O530      4.09762      .   S
    Zr529  O531      1.95574      .   S
    N113   O531      4.16037      .   S
    Zr529  O532      1.91746      .   S
    N161   O532      4.09966  1_455   S
    Zr529  O533      1.91188      .   S
    N96    O533      4.09013      .   S
    Zr529  O534      1.91746      .   S
    N121   O534      4.09966      .   S
    Zr529  O535      1.95574      .   S
    N97    O535      4.16037      .   S
    Zr529  O536      1.91188      .   S
    N170   O536      4.09013      .   S
    Zr529  O537      1.91863      .   S
    N161   O537      4.09762  1_455   S
    Zr529  O538      1.95978      .   S
    N97    O538      4.15197      .   S
    Zr529  O539      1.95978      .   S
    N113   O539      4.15197      .   S
    Zr529  O540      1.93194      .   S
    N170   O540      4.05889      .   S
    Zr529  O541      1.93194      .   S
    N96    O541      4.05889      .   S
    Zr542  O543      1.93039      .   S
    N135   O543      4.08931      .   S
    Zr542  O544      1.89887      .   S
    N170   O544      4.04970      .   S
    Zr542  O545      1.93043      .   S
    N130   O545      4.08926      .   S
    Zr542  O546      1.89887      .   S
    N3     O546      4.04970      .   S
    Zr542  O547      1.89675      .   S
    N90    O547      4.04042      .   S
    Zr542  O548      1.92301      .   S
    N130   O548      4.10013      .   S
    Zr542  O549      1.90384      .   S
    N3     O549      4.04131      .   S
    Zr542  O550      1.94957      .   S
    N131   O550      4.13357      .   S
    Zr542  O551      1.89677      .   S
    N90    O551      4.04042      .   S
    Zr542  O552      1.90384      .   S
    N170   O552      4.04131      .   S
    Zr542  O553      1.92307      .   S
    N135   O553      4.10008      .   S
    Zr542  O554      1.94960      .   S
    N131   O554      4.13358      .   S
    Zr555  O556      1.93041      .   S
    N126   O556      4.08930      .   S
    Zr555  O557      1.89887      .   S
    N124   O557      4.04970      .   S
    Zr555  O558      1.89887      .   S
    N43    O558      4.04970      .   S
    Zr555  O559      1.93041      .   S
    N23    O559      4.08930      .   S
    Zr555  O560      1.90384      .   S
    N43    O560      4.04131      .   S
    Zr555  O561      1.94961      .   S
    N123   O561      4.13356      .   S
    Zr555  O562      1.92305      .   S
    N126   O562      4.10009      .   S
    Zr555  O563      1.89684      .   S
    N125   O563      4.04041      .   S
    Zr555  O564      1.94961      .   S
    N123   O564      4.13356      .   S
    Zr555  O565      1.89684      .   S
    N125   O565      4.04041      .   S
    Zr555  O566      1.90384      .   S
    N124   O566      4.04131      .   S
    Zr555  O567      1.92305      .   S
    N23    O567      4.10009      .   S
    Zr568  O569      1.90384      .   S
    N133   O569      4.04131      .   S
    Zr568  O570      1.94960      .   S
    N180   O570      4.13358      .   S
    Zr568  O571      1.89677      .   S
    N67    O571      4.04042      .   S
    Zr568  O572      1.92307      .   S
    N160   O572      4.10008      .   S
    Zr568  O573      1.89887      .   S
    N133   O573      4.04970      .   S
    Zr568  O574      1.93043      .   S
    N103   O574      4.08926      .   S
    Zr568  O575      1.89887      .   S
    N132   O575      4.04970  1_545   S
    Zr568  O576      1.93039      .   S
    N160   O576      4.08931      .   S
    Zr568  O577      1.94957      .   S
    N180   O577      4.13357      .   S
    Zr568  O578      1.89675      .   S
    N67    O578      4.04042      .   S
    Zr568  O579      1.92301      .   S
    N103   O579      4.10013      .   S
    Zr568  O580      1.90384      .   S
    N132   O580      4.04131  1_545   S
    Zr581  O582      1.93043      .   S
    N142   O582      4.08926      .   S
    Zr581  O583      1.89887      .   S
    N155   O583      4.04970      .   S
    Zr581  O584      1.93039      .   S
    N145   O584      4.08931      .   S
    Zr581  O585      1.89887      .   S
    N156   O585      4.04970  1_545   S
    Zr581  O586      1.94960      .   S
    N138   O586      4.13358      .   S
    Zr581  O587      1.90384      .   S
    N155   O587      4.04131      .   S
    Zr581  O588      1.89677      .   S
    N158   O588      4.04042      .   S
    Zr581  O589      1.92307      .   S
    N145   O589      4.10008      .   S
    Zr581  O590      1.92301      .   S
    N142   O590      4.10013      .   S
    Zr581  O591      1.94957      .   S
    N138   O591      4.13357      .   S
    Zr581  O592      1.89675      .   S
    N158   O592      4.04042      .   S
    Zr581  O593      1.90384      .   S
    N156   O593      4.04131  1_545   S
    Zr594  O595      1.95577      .   S
    N59    O595      4.16046      .   S
    Zr594  O596      1.91188      .   S
    N132   O596      4.09013      .   S
    Zr594  O597      1.91864      .   S
    N102   O597      4.09764      .   S
    Zr594  O598      1.91755      .   S
    N165   O598      4.09964      .   S
    Zr594  O599      1.95987      .   S
    N59    O599      4.15200      .   S
    Zr594  O600      1.95981      .   S
    N169   O600      4.15199      .   S
    Zr594  O601      1.93200      .   S
    N124   O601      4.05883      .   S
    Zr594  O602      1.93195      .   S
    N132   O602      4.05886      .   S
    Zr594  O603      1.95576      .   S
    N169   O603      4.16041      .   S
    Zr594  O604      1.91748      .   S
    N102   O604      4.09965      .   S
    Zr594  O605      1.91188      .   S
    N124   O605      4.09013      .   S
    Zr594  O606      1.91865      .   S
    N165   O606      4.09768      .   S
    Zr607  O608      1.95573      .   S
    N195   O608      4.16036      .   S
    Zr607  O609      1.91864      .   S
    N137   O609      4.09765  1_554   S
    Zr607  O610      1.91188      .   S
    N147   O610      4.09013      .   S
    Zr607  O611      1.91751      .   S
    N0     O611      4.09965      .   S
    Zr607  O612      1.91751      .   S
    N137   O612      4.09965  1_554   S
    Zr607  O613      1.95573      .   S
    N12    O613      4.16036      .   S
    Zr607  O614      1.91864      .   S
    N0     O614      4.09765      .   S
    Zr607  O615      1.91188      .   S
    N4     O615      4.09013      .   S
    Zr607  O616      1.95976      .   S
    N12    O616      4.15197      .   S
    Zr607  O617      1.93200      .   S
    N4     O617      4.05882      .   S
    Zr607  O618      1.93200      .   S
    N147   O618      4.05882      .   S
    Zr607  O619      1.95976      .   S
    N195   O619      4.15197      .   S
    Zr620  O621      1.93043      .   S
    N88    O621      4.08926      .   S
    Zr620  O622      1.93039      .   S
    N160   O622      4.08931      .   S
    Zr620  O623      1.89887      .   S
    N134   O623      4.04970  1_455   S
    Zr620  O624      1.89887      .   S
    N96    O624      4.04970      .   S
    Zr620  O625      1.89677      .   S
    N66    O625      4.04042      .   S
    Zr620  O626      1.94960      .   S
    N95    O626      4.13358      .   S
    Zr620  O627      1.92307      .   S
    N160   O627      4.10008      .   S
    Zr620  O628      1.90384      .   S
    N96    O628      4.04131      .   S
    Zr620  O629      1.94957      .   S
    N95    O629      4.13357      .   S
    Zr620  O630      1.92301      .   S
    N88    O630      4.10013      .   S
    Zr620  O631      1.89675      .   S
    N66    O631      4.04042      .   S
    Zr620  O632      1.90384      .   S
    N134   O632      4.04131  1_455   S
    Zr633  O634      1.91735      .   S
    N98    O634      4.10367      .   S
    Zr633  O635      1.91735      .   S
    N75    O635      4.10367      .   S
    Zr633  O636      1.91732      .   S
    N62    O636      4.10358      .   S
    Zr633  O637      1.91732      .   S
    N89    O637      4.10358      .   S
    Zr633  O638      1.92143      .   S
    N62    O638      4.09655      .   S
    Zr633  O639      1.92140      .   S
    N98    O639      4.09669      .   S
    Zr633  O640      1.91809      .   S
    N104   O640      4.07294      .   S
    Zr633  O641      1.91809      .   S
    N87    O641      4.07294      .   S
    Zr633  O642      1.91809      .   S
    N87    O642      4.07294      .   S
    Zr633  O643      1.92143      .   S
    N89    O643      4.09655      .   S
    Zr633  O644      1.92140      .   S
    N75    O644      4.09669      .   S
    Zr633  O645      1.91809      .   S
    N104   O645      4.07294      .   S
    Zr646  O647      1.91736      .   S
    N198   O647      4.10368      .   S
    Zr646  O648      1.91734      .   S
    N192   O648      4.10361      .   S
    Zr646  O649      1.91736      .   S
    N189   O649      4.10368      .   S
    Zr646  O650      1.91734      .   S
    N185   O650      4.10361      .   S
    Zr646  O651      1.92142      .   S
    N185   O651      4.09662      .   S
    Zr646  O652      1.91809      .   S
    N193   O652      4.07294      .   S
    Zr646  O653      1.92142      .   S
    N192   O653      4.09662      .   S
    Zr646  O654      1.91809      .   S
    N186   O654      4.07294      .   S
    Zr646  O655      1.91809      .   S
    N193   O655      4.07294      .   S
    Zr646  O656      1.91809      .   S
    N186   O656      4.07294      .   S
    Zr646  O657      1.92140      .   S
    N189   O657      4.09672      .   S
    Zr646  O658      1.92140      .   S
    N198   O658      4.09672      .   S
    Zr659  O660      1.91732  1_565   S
    N54    O660      4.10358      .   S
    Zr659  O661      1.91735  1_655   S
    N167   O661      4.10367      .   S
    Zr659  O662      1.91732  1_655   S
    N32    O662      4.10358      .   S
    Zr659  O663      1.91735  1_565   S
    N81    O663      4.10367      .   S
    Zr659  O664      1.92143  1_655   S
    N32    O664      4.09655      .   S
    Zr659  O665      1.91809      .   S
    N82    O665      4.07294      .   S
    Zr659  O666      1.91809      .   S
    N33    O666      4.07294      .   S
    Zr659  O667      1.92140  1_655   S
    N167   O667      4.09669      .   S
    Zr659  O668      1.92143  1_565   S
    N54    O668      4.09655      .   S
    Zr659  O669      1.92140  1_565   S
    N81    O669      4.09669      .   S
    Zr659  O670      1.91809      .   S
    N33    O670      4.07294      .   S
    Zr659  O671      1.91809      .   S
    N82    O671      4.07294      .   S
    Zr672  O673      1.91736      .   S
    N47    O673      4.10368      .   S
    Zr672  O674      1.91736      .   S
    N93    O674      4.10368      .   S
    Zr672  O675      1.91734  1_556   S
    N171   O675      4.10361      .   S
    Zr672  O676      1.91734  1_556   S
    N179   O676      4.10361      .   S
    Zr672  O677      1.91809      .   S
    N78    O677      4.07294      .   S
    Zr672  O678      1.92140      .   S
    N93    O678      4.09672      .   S
    Zr672  O679      1.91809      .   S
    N48    O679      4.07294      .   S
    Zr672  O680      1.92140      .   S
    N47    O680      4.09672      .   S
    Zr672  O681      1.91809      .   S
    N48    O681      4.07294      .   S
    Zr672  O682      1.92142  1_556   S
    N179   O682      4.09662      .   S
    Zr672  O683      1.91809      .   S
    N78    O683      4.07294      .   S
    Zr672  O684      1.92142  1_556   S
    N171   O684      4.09662      .   S
    Zr685  O686      1.91736      .   S
    N56    O686      4.10368      .   S
    Zr685  O687      1.91734  1_565   S
    N58    O687      4.10361      .   S
    Zr685  O688      1.91736      .   S
    N168   O688      4.10368      .   S
    Zr685  O689      1.91734  1_565   S
    N169   O689      4.10361      .   S
    Zr685  O690      1.92142  1_565   S
    N58    O690      4.09662      .   S
    Zr685  O691      1.91809      .   S
    N138   O691      4.07294      .   S
    Zr685  O692      1.91809      .   S
    N180   O692      4.07294      .   S
    Zr685  O693      1.92142  1_565   S
    N169   O693      4.09662      .   S
    Zr685  O694      1.92140      .   S
    N56    O694      4.09672      .   S
    Zr685  O695      1.92140      .   S
    N168   O695      4.09672      .   S
    Zr685  O696      1.91809      .   S
    N180   O696      4.07294      .   S
    Zr685  O697      1.91809      .   S
    N138   O697      4.07294      .   S
    Zr698  O699      1.91735  1_556   S
    N118   O699      4.10367      .   S
    Zr698  O700      1.91735  1_655   S
    N196   O700      4.10367      .   S
    Zr698  O701      1.91732  1_655   S
    N146   O701      4.10358      .   S
    Zr698  O702      1.91732  1_556   S
    N110   O702      4.10358      .   S
    Zr698  O703      1.91809      .   S
    N176   O703      4.07294      .   S
    Zr698  O704      1.91809      .   S
    N111   O704      4.07294      .   S
    Zr698  O705      1.92143  1_655   S
    N146   O705      4.09655      .   S
    Zr698  O706      1.92140  1_655   S
    N196   O706      4.09669      .   S
    Zr698  O707      1.92143  1_556   S
    N110   O707      4.09655      .   S
    Zr698  O708      1.91809      .   S
    N111   O708      4.07294      .   S
    Zr698  O709      1.91809      .   S
    N176   O709      4.07294      .   S
    Zr698  O710      1.92140  1_556   S
    N118   O710      4.09669      .   S
    Zr711  O712      1.91736      .   S
    N57    O712      4.10368      .   S
    Zr711  O713      1.91734  1_655   S
    N55    O713      4.10361      .   S
    Zr711  O714      1.91734  1_655   S
    N94    O714      4.10361      .   S
    Zr711  O715      1.91736      .   S
    N97    O715      4.10368      .   S
    Zr711  O716      1.92140      .   S
    N57    O716      4.09672      .   S
    Zr711  O717      1.92140      .   S
    N97    O717      4.09672      .   S
    Zr711  O718      1.91809      .   S
    N95    O718      4.07294      .   S
    Zr711  O719      1.91809      .   S
    N105   O719      4.07294      .   S
    Zr711  O720      1.92142  1_655   S
    N94    O720      4.09662      .   S
    Zr711  O721      1.91809      .   S
    N95    O721      4.07294      .   S
    Zr711  O722      1.91809      .   S
    N105   O722      4.07294      .   S
    Zr711  O723      1.92142  1_655   S
    N55    O723      4.09662      .   S
    Zr724  O725      1.91732  1_556   S
    N120   O725      4.10358      .   S
    Zr724  O726      1.91735  1_556   S
    N119   O726      4.10367      .   S
    Zr724  O727      1.91735  1_565   S
    N195   O727      4.10367      .   S
    Zr724  O728      1.91732  1_565   S
    N200   O728      4.10358      .   S
    Zr724  O729      1.91809      .   S
    N139   O729      4.07294      .   S
    Zr724  O730      1.92143  1_565   S
    N200   O730      4.09655      .   S
    Zr724  O731      1.91809      .   S
    N197   O731      4.07294      .   S
    Zr724  O732      1.92140  1_565   S
    N195   O732      4.09669      .   S
    Zr724  O733      1.91809      .   S
    N197   O733      4.07294      .   S
    Zr724  O734      1.92140  1_556   S
    N119   O734      4.09669      .   S
    Zr724  O735      1.92143  1_556   S
    N120   O735      4.09655      .   S
    Zr724  O736      1.91809      .   S
    N139   O736      4.07294      .   S
    Zr737  O738      1.91809      .   S
    N14    O738      4.07294      .   S
    Zr737  O739      1.92140      .   S
    N191   O739      4.09669      .   S
    Zr737  O740      1.91809      .   S
    N25    O740      4.07294      .   S
    Zr737  O741      1.92143      .   S
    N15    O741      4.09655      .   S
    Zr737  O742      1.91809      .   S
    N14    O742      4.07294      .   S
    Zr737  O743      1.92140      .   S
    N12    O743      4.09669      .   S
    Zr737  O744      1.92143      .   S
    N129   O744      4.09655      .   S
    Zr737  O745      1.91809      .   S
    N25    O745      4.07294      .   S
    Zr737  O746      1.91735      .   S
    N12    O746      4.10367      .   S
    Zr737  O747      1.91732      .   S
    N129   O747      4.10358      .   S
    Zr737  O748      1.91735      .   S
    N191   O748      4.10367      .   S
    Zr737  O749      1.91732      .   S
    N15    O749      4.10358      .   S
    Zr750  O751      1.91188      .   S
    N173   O751      4.09013      .   S
    Zr750  O752      1.91863      .   S
    N127   O752      4.09762  1_554   S
    Zr750  O753      1.91746      .   S
    N46    O753      4.09966      .   S
    Zr750  O754      1.95574      .   S
    N47    O754      4.16037      .   S
    Zr750  O755      1.91746      .   S
    N127   O755      4.09966  1_554   S
    Zr750  O756      1.91188      .   S
    N150   O756      4.09013      .   S
    Zr750  O757      1.91863      .   S
    N46    O757      4.09762      .   S
    Zr750  O758      1.95574      .   S
    N198   O758      4.16037      .   S
    Zr750  O759      1.95978      .   S
    N198   O759      4.15197      .   S
    Zr750  O760      1.93194      .   S
    N150   O760      4.05889      .   S
    Zr750  O761      1.93194      .   S
    N173   O761      4.05889      .   S
    Zr750  O762      1.95978      .   S
    N47    O762      4.15197      .   S
    Zr763  O764      1.89679      .   S
    N122   O764      4.04041      .   S
    Zr763  O765      1.90384      .   S
    N147   O765      4.04131      .   S
    Zr763  O766      1.94947      .   S
    N25    O766      4.13370      .   S
    Zr763  O767      1.92308      .   S
    N136   O767      4.10005      .   S
    Zr763  O768      1.93036      .   S
    N136   O768      4.08934      .   S
    Zr763  O769      1.93036      .   S
    N29    O769      4.08934      .   S
    Zr763  O770      1.89887      .   S
    N24    O770      4.04970      .   S
    Zr763  O771      1.89887      .   S
    N147   O771      4.04970      .   S
    Zr763  O772      1.92308      .   S
    N29    O772      4.10005      .   S
    Zr763  O773      1.89679      .   S
    N122   O773      4.04041      .   S
    Zr763  O774      1.90384      .   S
    N24    O774      4.04131      .   S
    Zr763  O775      1.94947      .   S
    N25    O775      4.13370      .   S
    Zr776  O777      1.92307      .   S
    N178   O777      4.10008      .   S
    Zr776  O778      1.89677      .   S
    N177   O778      4.04042      .   S
    Zr776  O779      1.90384      .   S
    N173   O779      4.04131      .   S
    Zr776  O780      1.94960      .   S
    N193   O780      4.13358      .   S
    Zr776  O781      1.89675      .   S
    N177   O781      4.04042      .   S
    Zr776  O782      1.92301      .   S
    N136   O782      4.10013      .   S
    Zr776  O783      1.94957      .   S
    N193   O783      4.13357      .   S
    Zr776  O784      1.90384      .   S
    N194   O784      4.04131      .   S
    Zr776  O785      1.93043      .   S
    N136   O785      4.08926      .   S
    Zr776  O786      1.89887      .   S
    N194   O786      4.04970      .   S
    Zr776  O787      1.89887      .   S
    N173   O787      4.04970      .   S
    Zr776  O788      1.93039      .   S
    N178   O788      4.08931      .   S
    Zr789  O790      1.89730      .   S
    N8     O790      4.01626      .   S
    Zr789  O791      1.91886      .   S
    N9     O791      4.07293      .   S
    Zr789  O792      1.89724      .   S
    N40    O792      4.01613      .   S
    Zr789  O793      1.91883      .   S
    N90    O793      4.07292      .   S
    Zr789  O794      1.89724      .   S
    N148   O794      4.01613      .   S
    Zr789  O795      1.89730      .   S
    N8     O795      4.01626      .   S
    Zr789  O796      1.91883      .   S
    N84    O796      4.07292      .   S
    Zr789  O797      1.91886      .   S
    N9     O797      4.07293      .   S
    Zr789  O798      1.91882      .   S
    N84    O798      4.07292      .   S
    Zr789  O799      1.91882      .   S
    N90    O799      4.07292      .   S
    Zr789  O800      1.89722      .   S
    N40    O800      4.01615      .   S
    Zr789  O801      1.89722      .   S
    N148   O801      4.01615      .   S
    Zr802  O803      1.91886      .   S
    N122   O803      4.07293      .   S
    Zr802  O804      1.89724      .   S
    N63    O804      4.01613      .   S
    Zr802  O805      1.89730      .   S
    N17    O805      4.01626      .   S
    Zr802  O806      1.91883      .   S
    N28    O806      4.07292      .   S
    Zr802  O807      1.91882      .   S
    N28    O807      4.07292      .   S
    Zr802  O808      1.89722      .   S
    N63    O808      4.01615      .   S
    Zr802  O809      1.89722      .   S
    N148   O809      4.01615      .   S
    Zr802  O810      1.91882      .   S
    N177   O810      4.07292      .   S
    Zr802  O811      1.91886      .   S
    N122   O811      4.07293      .   S
    Zr802  O812      1.91883      .   S
    N177   O812      4.07292      .   S
    Zr802  O813      1.89730      .   S
    N17    O813      4.01626      .   S
    Zr802  O814      1.89724      .   S
    N148   O814      4.01613      .   S
    Zr815  O816      1.89722      .   S
    N40    O816      4.01615      .   S
    Zr815  O817      1.89722      .   S
    N63    O817      4.01615      .   S
    Zr815  O818      1.91882      .   S
    N45    O818      4.07292      .   S
    Zr815  O819      1.91882      .   S
    N85    O819      4.07292      .   S
    Zr815  O820      1.89730      .   S
    N42    O820      4.01626      .   S
    Zr815  O821      1.91886      .   S
    N35    O821      4.07293      .   S
    Zr815  O822      1.89724      .   S
    N63    O822      4.01613      .   S
    Zr815  O823      1.91883      .   S
    N85    O823      4.07292      .   S
    Zr815  O824      1.91886      .   S
    N35    O824      4.07293      .   S
    Zr815  O825      1.89730      .   S
    N42    O825      4.01626      .   S
    Zr815  O826      1.89724      .   S
    N40    O826      4.01613      .   S
    Zr815  O827      1.91883      .   S
    N45    O827      4.07292      .   S
    Zr828  O829      1.89719      .   S
    N42    O829      4.01607      .   S
    Zr828  O830      1.91887      .   S
    N125   O830      4.07294      .   S
    Zr828  O831      1.89719      .   S
    N8     O831      4.01607      .   S
    Zr828  O832      1.91887      .   S
    N86    O832      4.07294      .   S
    Zr828  O833      1.89719      .   S
    N17    O833      4.01607      .   S
    Zr828  O834      1.89719      .   S
    N42    O834      4.01607      .   S
    Zr828  O835      1.91887      .   S
    N16    O835      4.07294      .   S
    Zr828  O836      1.91887      .   S
    N86    O836      4.07294      .   S
    Zr828  O837      1.91887      .   S
    N125   O837      4.07294      .   S
    Zr828  O838      1.89719      .   S
    N8     O838      4.01607      .   S
    Zr828  O839      1.91887      .   S
    N16    O839      4.07294      .   S
    Zr828  O840      1.89719      .   S
    N17    O840      4.01607      .   S
    Zr841  O842      1.89730      .   S
    N83    O842      4.01626      .   S
    Zr841  O843      1.89724      .   S
    N166   O843      4.01613      .   S
    Zr841  O844      1.91883      .   S
    N66    O844      4.07292      .   S
    Zr841  O845      1.91886      .   S
    N68    O845      4.07293      .   S
    Zr841  O846      1.91883      .   S
    N67    O846      4.07292      .   S
    Zr841  O847      1.89730      .   S
    N83    O847      4.01626      .   S
    Zr841  O848      1.89724      .   S
    N157   O848      4.01613      .   S
    Zr841  O849      1.91886      .   S
    N68    O849      4.07293      .   S
    Zr841  O850      1.89722      .   S
    N166   O850      4.01615      .   S
    Zr841  O851      1.91882      .   S
    N66    O851      4.07292      .   S
    Zr841  O852      1.91882      .   S
    N67    O852      4.07292      .   S
    Zr841  O853      1.89722      .   S
    N157   O853      4.01615      .   S
    Zr854  O855      1.89719      .   S
    N162   O855      4.01607      .   S
    Zr854  O856      1.91887      .   S
    N203   O856      4.07294      .   S
    Zr854  O857      1.91887      .   S
    N190   O857      4.07294      .   S
    Zr854  O858      1.89719      .   S
    N83    O858      4.01607      .   S
    Zr854  O859      1.91887      .   S
    N107   O859      4.07294      .   S
    Zr854  O860      1.91887      .   S
    N203   O860      4.07294      .   S
    Zr854  O861      1.89719      .   S
    N153   O861      4.01607      .   S
    Zr854  O862      1.89719      .   S
    N83    O862      4.01607      .   S
    Zr854  O863      1.91887      .   S
    N107   O863      4.07294      .   S
    Zr854  O864      1.91887      .   S
    N190   O864      4.07294      .   S
    Zr854  O865      1.89719      .   S
    N162   O865      4.01607      .   S
    Zr854  O866      1.89719      .   S
    N153   O866      4.01607      .   S
    Zr867  O868      1.91882      .   S
    N151   O868      4.07292      .   S
    Zr867  O869      1.91882      .   S
    N184   O869      4.07292      .   S
    Zr867  O870      1.89722      .   S
    N143   O870      4.01615      .   S
    Zr867  O871      1.89722      .   S
    N166   O871      4.01615      .   S
    Zr867  O872      1.91886      .   S
    N175   O872      4.07293      .   S
    Zr867  O873      1.89730      .   S
    N153   O873      4.01626      .   S
    Zr867  O874      1.89724      .   S
    N143   O874      4.01613      .   S
    Zr867  O875      1.91883      .   S
    N151   O875      4.07292      .   S
    Zr867  O876      1.89730      .   S
    N153   O876      4.01626      .   S
    Zr867  O877      1.91886      .   S
    N175   O877      4.07293      .   S
    Zr867  O878      1.91883      .   S
    N184   O878      4.07292      .   S
    Zr867  O879      1.89724      .   S
    N166   O879      4.01613      .   S
    Zr880  O881      1.89724      .   S
    N143   O881      4.01613      .   S
    Zr880  O882      1.91886      .   S
    N140   O882      4.07293      .   S
    Zr880  O883      1.91883      .   S
    N144   O883      4.07292      .   S
    Zr880  O884      1.89730      .   S
    N162   O884      4.01626      .   S
    Zr880  O885      1.91882      .   S
    N144   O885      4.07292      .   S
    Zr880  O886      1.91882      .   S
    N158   O886      4.07292      .   S
    Zr880  O887      1.89722      .   S
    N143   O887      4.01615      .   S
    Zr880  O888      1.89722      .   S
    N157   O888      4.01615      .   S
    Zr880  O889      1.89730      .   S
    N162   O889      4.01626      .   S
    Zr880  O890      1.91886      .   S
    N140   O890      4.07293      .   S
    Zr880  O891      1.89724      .   S
    N157   O891      4.01613      .   S
    Zr880  O892      1.91883      .   S
    N158   O892      4.07292      .   S
    Zr893  O894      1.91188      .   S
    N21    O894      4.09013      .   S
    Zr893  O895      1.95577      .   S
    N15    O895      4.16046      .   S
    Zr893  O896      1.91755      .   S
    N22    O896      4.09964      .   S
    Zr893  O897      1.91864      .   S
    N18    O897      4.09764      .   S
    Zr893  O898      1.95576      .   S
    N55    O898      4.16041      .   S
    Zr893  O899      1.91865      .   S
    N22    O899      4.09768      .   S
    Zr893  O900      1.91748      .   S
    N18    O900      4.09965      .   S
    Zr893  O901      1.91188      .   S
    N20    O901      4.09013      .   S
    Zr893  O902      1.93195      .   S
    N21    O902      4.05886      .   S
    Zr893  O903      1.95981      .   S
    N55    O903      4.15199      .   S
    Zr893  O904      1.93200      .   S
    N20    O904      4.05883      .   S
    Zr893  O905      1.95987      .   S
    N15    O905      4.15200      .   S
    Zr906  O907      1.91755      .   S
    N46    O907      4.09964      .   S
    Zr906  O908      1.91864      .   S
    N172   O908      4.09764  1_554   S
    Zr906  O909      1.91188      .   S
    N194   O909      4.09013      .   S
    Zr906  O910      1.95577      .   S
    N200   O910      4.16046      .   S
    Zr906  O911      1.95981      .   S
    N192   O911      4.15199      .   S
    Zr906  O912      1.93200      .   S
    N202   O912      4.05883      .   S
    Zr906  O913      1.93195      .   S
    N194   O913      4.05886      .   S
    Zr906  O914      1.95987      .   S
    N200   O914      4.15200      .   S
    Zr906  O915      1.95576      .   S
    N192   O915      4.16041      .   S
    Zr906  O916      1.91748      .   S
    N172   O916      4.09965  1_554   S
    Zr906  O917      1.91865      .   S
    N46    O917      4.09768      .   S
    Zr906  O918      1.91188      .   S
    N202   O918      4.09013      .   S
    Zr919  O920      1.94961      .   S
    N197   O920      4.13356      .   S
    Zr919  O921      1.90384      .   S
    N202   O921      4.04131  1_545   S
    Zr919  O922      1.89684      .   S
    N190   O922      4.04041      .   S
    Zr919  O923      1.92305      .   S
    N199   O923      4.10009      .   S
    Zr919  O924      1.93041      .   S
    N199   O924      4.08930      .   S
    Zr919  O925      1.89887      .   S
    N202   O925      4.04970  1_545   S
    Zr919  O926      1.89887      .   S
    N64    O926      4.04970  1_554   S
    Zr919  O927      1.93041      .   S
    N108   O927      4.08930      .   S
    Zr919  O928      1.89684      .   S
    N190   O928      4.04041      .   S
    Zr919  O929      1.94961      .   S
    N197   O929      4.13356      .   S
    Zr919  O930      1.90384      .   S
    N64    O930      4.04131  1_554   S
    Zr919  O931      1.92305      .   S
    N108   O931      4.10009      .   S
    Zr932  O933      1.92142      .   S
    N99    O933      4.09662      .   S
    Zr932  O934      1.91809      .   S
    N131   O934      4.07294      .   S
    Zr932  O935      1.92142      .   S
    N38    O935      4.09662      .   S
    Zr932  O936      1.91809      .   S
    N39    O936      4.07294      .   S
    Zr932  O937      1.92140      .   S
    N113   O937      4.09672      .   S
    Zr932  O938      1.91809      .   S
    N39    O938      4.07294      .   S
    Zr932  O939      1.91809      .   S
    N131   O939      4.07294      .   S
    Zr932  O940      1.92140      .   S
    N164   O940      4.09672      .   S
    Zr932  O941      1.91734      .   S
    N99    O941      4.10361      .   S
    Zr932  O942      1.91734      .   S
    N38    O942      4.10361      .   S
    Zr932  O943      1.91736      .   S
    N113   O943      4.10368      .   S
    Zr932  O944      1.91736      .   S
    N164   O944      4.10368      .   S
    Zr945  O946      1.92143      .   S
    N59    O946      4.09655      .   S
    Zr945  O947      1.91809      .   S
    N123   O947      4.07294      .   S
    Zr945  O948      1.92140      .   S
    N5     O948      4.09669      .   S
    Zr945  O949      1.91809      .   S
    N1     O949      4.07294      .   S
    Zr945  O950      1.91809      .   S
    N123   O950      4.07294      .   S
    Zr945  O951      1.92140      .   S
    N100   O951      4.09669      .   S
    Zr945  O952      1.92143      .   S
    N101   O952      4.09655      .   S
    Zr945  O953      1.91809      .   S
    N1     O953      4.07294      .   S
    Zr945  O954      1.91732      .   S
    N59    O954      4.10358      .   S
    Zr945  O955      1.91732      .   S
    N101   O955      4.10358      .   S
    Zr945  O956      1.91735      .   S
    N100   O956      4.10367      .   S
    Zr945  O957      1.91735      .   S
    N5     O957      4.10367      .   S
    Zr958  O959      1.92142      .   S
    N65    O959      4.09662      .   S
    Zr958  O960      1.92142      .   S
    N70    O960      4.09662      .   S
    Zr958  O961      1.91809      .   S
    N182   O961      4.07294      .   S
    Zr958  O962      1.91809      .   S
    N31    O962      4.07294      .   S
    Zr958  O963      1.92140      .   S
    N30    O963      4.09672      .   S
    Zr958  O964      1.91809      .   S
    N182   O964      4.07294      .   S
    Zr958  O965      1.92140      .   S
    N183   O965      4.09672      .   S
    Zr958  O966      1.91809      .   S
    N31    O966      4.07294      .   S
    Zr958  O967      1.91736      .   S
    N30    O967      4.10368      .   S
    Zr958  O968      1.91736      .   S
    N183   O968      4.10368      .   S
    Zr958  O969      1.91734      .   S
    N65    O969      4.10361      .   S
    Zr958  O970      1.91734      .   S
    N70    O970      4.10361      .   S
    Zr971  O972      1.95576      .   S
    N65    O972      4.16041      .   S
    Zr971  O973      1.91748      .   S
    N149   O973      4.09965  1_545   S
    Zr971  O974      1.91865      .   S
    N73    O974      4.09768      .   S
    Zr971  O975      1.91188      .   S
    N50    O975      4.09013      .   S
    Zr971  O976      1.93195      .   S
    N69    O976      4.05886      .   S
    Zr971  O977      1.95981      .   S
    N65    O977      4.15199      .   S
    Zr971  O978      1.93200      .   S
    N50    O978      4.05883      .   S
    Zr971  O979      1.95987      .   S
    N32    O979      4.15200      .   S
    Zr971  O980      1.95577      .   S
    N32    O980      4.16046      .   S
    Zr971  O981      1.91755      .   S
    N73    O981      4.09964      .   S
    Zr971  O982      1.91188      .   S
    N69    O982      4.09013      .   S
    Zr971  O983      1.91864      .   S
    N149   O983      4.09764  1_545   S
    Zr984  O985      1.95978      .   S
    N30    O985      4.15197      .   S
    Zr984  O986      1.95978      .   S
    N56    O986      4.15197      .   S
    Zr984  O987      1.93194      .   S
    N155   O987      4.05889      .   S
    Zr984  O988      1.93194      .   S
    N52    O988      4.05889      .   S
    Zr984  O989      1.95574      .   S
    N30    O989      4.16037      .   S
    Zr984  O990      1.91746      .   S
    N128   O990      4.09966  1_545   S
    Zr984  O991      1.91863      .   S
    N73    O991      4.09762      .   S
    Zr984  O992      1.91188      .   S
    N155   O992      4.09013      .   S
    Zr984  O993      1.91863      .   S
    N128   O993      4.09762  1_545   S
    Zr984  O994      1.95574      .   S
    N56    O994      4.16037      .   S
    Zr984  O995      1.91188      .   S
    N52    O995      4.09013      .   S
    Zr984  O996      1.91746      .   S
    N73    O996      4.09966      .   S
    Zr997  O998      1.95987      .   S
    N54    O998      4.15200      .   S
    Zr997  O999      1.93200      .   S
    N34    O999      4.05883      .   S
    Zr997  O1000     1.95981      .   S
    N185   O1000     4.15199      .   S
    Zr997  O1001     1.93195      .   S
    N51    O1001     4.05886      .   S
    Zr997  O1002     1.95577      .   S
    N54    O1002     4.16046      .   S
    Zr997  O1003     1.91755      .   S
    N174   O1003     4.09964      .   S
    Zr997  O1004     1.91188      .   S
    N51    O1004     4.09013      .   S
    Zr997  O1005     1.91864      .   S
    N149   O1005     4.09764  1_455   S
    Zr997  O1006     1.91188      .   S
    N34    O1006     4.09013      .   S
    Zr997  O1007     1.95576      .   S
    N185   O1007     4.16041      .   S
    Zr997  O1008     1.91865      .   S
    N174   O1008     4.09768      .   S
    Zr997  O1009     1.91748      .   S
    N149   O1009     4.09965  1_455   S
    Zr1010 O1011     1.93200      .   S
    N43    O1011     4.05883      .   S
    Zr1010 O1012     1.95981      .   S
    N171   O1012     4.15199      .   S
    Zr1010 O1013     1.95987      .   S
    N101   O1013     4.15200      .   S
    Zr1010 O1014     1.93195      .   S
    N114   O1014     4.05886      .   S
    Zr1010 O1015     1.91865      .   S
    N127   O1015     4.09768      .   S
    Zr1010 O1016     1.91748      .   S
    N102   O1016     4.09965      .   S
    Zr1010 O1017     1.95576      .   S
    N171   O1017     4.16041      .   S
    Zr1010 O1018     1.91188      .   S
    N43    O1018     4.09013      .   S
    Zr1010 O1019     1.91188      .   S
    N114   O1019     4.09013      .   S
    Zr1010 O1020     1.95577      .   S
    N101   O1020     4.16046      .   S
    Zr1010 O1021     1.91755      .   S
    N127   O1021     4.09964      .   S
    Zr1010 O1022     1.91864      .   S
    N102   O1022     4.09764      .   S
    Zr1023 O1024     1.90384      .   S
    N50    O1024     4.04131  1_455   S
    Zr1023 O1025     1.92305      .   S
    N154   O1025     4.10009      .   S
    Zr1023 O1026     1.89684      .   S
    N203   O1026     4.04041      .   S
    Zr1023 O1027     1.94961      .   S
    N33    O1027     4.13356      .   S
    Zr1023 O1028     1.89887      .   S
    N50    O1028     4.04970  1_455   S
    Zr1023 O1029     1.89887      .   S
    N34    O1029     4.04970  1_545   S
    Zr1023 O1030     1.93041      .   S
    N154   O1030     4.08930      .   S
    Zr1023 O1031     1.93041      .   S
    N199   O1031     4.08930      .   S
    Zr1023 O1032     1.89684      .   S
    N203   O1032     4.04041      .   S
    Zr1023 O1033     1.90384      .   S
    N34    O1033     4.04131  1_545   S
    Zr1023 O1034     1.92305      .   S
    N199   O1034     4.10009      .   S
    Zr1023 O1035     1.94961      .   S
    N33    O1035     4.13356      .   S
    Zr1036 O1037     1.94957      .   S
    N48    O1037     4.13357      .   S
    Zr1036 O1038     1.92301      .   S
    N152   O1038     4.10013      .   S
    Zr1036 O1039     1.89675      .   S
    N151   O1039     4.04042      .   S
    Zr1036 O1040     1.90384      .   S
    N114   O1040     4.04131  1_554   S
    Zr1036 O1041     1.93043      .   S
    N152   O1041     4.08926      .   S
    Zr1036 O1042     1.93039      .   S
    N188   O1042     4.08931      .   S
    Zr1036 O1043     1.89887      .   S
    N150   O1043     4.04970      .   S
    Zr1036 O1044     1.89887      .   S
    N114   O1044     4.04970  1_554   S
    Zr1036 O1045     1.92307      .   S
    N188   O1045     4.10008      .   S
    Zr1036 O1046     1.94960      .   S
    N48    O1046     4.13358      .   S
    Zr1036 O1047     1.90384      .   S
    N150   O1047     4.04131      .   S
    Zr1036 O1048     1.89677      .   S
    N151   O1048     4.04042      .   S
    Zr1049 O1050     1.95981      .   S
    N58    O1050     4.15199      .   S
    Zr1049 O1051     1.93195      .   S
    N156   O1051     4.05886      .   S
    Zr1049 O1052     1.93200      .   S
    N13    O1052     4.05883      .   S
    Zr1049 O1053     1.95987      .   S
    N129   O1053     4.15200      .   S
    Zr1049 O1054     1.95577      .   S
    N129   O1054     4.16046      .   S
    Zr1049 O1055     1.91755      .   S
    N128   O1055     4.09964      .   S
    Zr1049 O1056     1.91864      .   S
    N18    O1056     4.09764      .   S
    Zr1049 O1057     1.91188      .   S
    N156   O1057     4.09013      .   S
    Zr1049 O1058     1.95576      .   S
    N58    O1058     4.16041      .   S
    Zr1049 O1059     1.91188      .   S
    N13    O1059     4.09013      .   S
    Zr1049 O1060     1.91865      .   S
    N128   O1060     4.09768      .   S
    Zr1049 O1061     1.91748      .   S
    N18    O1061     4.09965      .   S
    Zr1062 O1063     1.92305      .   S
    N19    O1063     4.10009      .   S
    Zr1062 O1064     1.90384      .   S
    N41    O1064     4.04131      .   S
    Zr1062 O1065     1.89684      .   S
    N86    O1065     4.04041      .   S
    Zr1062 O1066     1.94961      .   S
    N104   O1066     4.13356      .   S
    Zr1062 O1067     1.90384      .   S
    N76    O1067     4.04131      .   S
    Zr1062 O1068     1.89684      .   S
    N86    O1068     4.04041      .   S
    Zr1062 O1069     1.92305      .   S
    N126   O1069     4.10009      .   S
    Zr1062 O1070     1.94961      .   S
    N104   O1070     4.13356      .   S
    Zr1062 O1071     1.93041      .   S
    N19    O1071     4.08930      .   S
    Zr1062 O1072     1.93041      .   S
    N126   O1072     4.08930      .   S
    Zr1062 O1073     1.89887      .   S
    N76    O1073     4.04970      .   S
    Zr1062 O1074     1.89887      .   S
    N41    O1074     4.04970      .   S
    Zr1075 O1076     1.93200      .   S
    N24    O1076     4.05882      .   S
    Zr1075 O1077     1.95976      .   S
    N196   O1077     4.15197      .   S
    Zr1075 O1078     1.95976      .   S
    N191   O1078     4.15197      .   S
    Zr1075 O1079     1.93200      .   S
    N201   O1079     4.05882      .   S
    Zr1075 O1080     1.91188      .   S
    N201   O1080     4.09013      .   S
    Zr1075 O1081     1.91751      .   S
    N181   O1081     4.09965  1_554   S
    Zr1075 O1082     1.95573      .   S
    N191   O1082     4.16036      .   S
    Zr1075 O1083     1.91864      .   S
    N0     O1083     4.09765      .   S
    Zr1075 O1084     1.91188      .   S
    N24    O1084     4.09013      .   S
    Zr1075 O1085     1.91864      .   S
    N181   O1085     4.09765  1_554   S
    Zr1075 O1086     1.95573      .   S
    N196   O1086     4.16036      .   S
    Zr1075 O1087     1.91751      .   S
    N0     O1087     4.09965      .   S
