# CIF file generated by openbabel 2.4.90, see http://openbabel.sf.net
data_I
_chemical_name_common ''
_cell_length_a 62.8399
_cell_length_b 62.8399
_cell_length_c 62.8399
_cell_angle_alpha 60
_cell_angle_beta 60
_cell_angle_gamma 60
_space_group_name_H-M_alt 'P 1'
_space_group_name_Hall 'P 1'
loop_
    _symmetry_equiv_pos_as_xyz
    x,y,z
loop_
    _atom_site_label
    _atom_site_type_symbol
    _atom_site_fract_x
    _atom_site_fract_y
    _atom_site_fract_z
    _atom_site_occupancy
    Zr0     Zr   0.11423   0.28384   0.65770   1.000
    Zr1     Zr   0.30656   0.35963   0.53034   1.000
    Zr2     Zr   0.28384   0.11423   0.94423   1.000
    Zr3     Zr   0.35963   0.30656   0.80348   1.000
    Zr4     Zr   0.65770   0.94423   0.11423   1.000
    Zr5     Zr   0.53034   0.80348   0.30656   1.000
    Zr6     Zr   0.94423   0.65770   0.28384   1.000
    Zr7     Zr   0.80348   0.53034   0.35963   1.000
    Zr8     Zr   0.65770   0.11423   0.28384   1.000
    Zr9     Zr   0.53034   0.30656   0.35963   1.000
    Zr10    Zr   0.94423   0.28384   0.11423   1.000
    Zr11    Zr   0.80348   0.35963   0.30656   1.000
    Zr12    Zr   0.11423   0.65770   0.94423   1.000
    Zr13    Zr   0.30656   0.53034   0.80348   1.000
    Zr14    Zr   0.28384   0.94423   0.65770   1.000
    Zr15    Zr   0.35963   0.80348   0.53034   1.000
    Zr16    Zr   0.28384   0.65770   0.11423   1.000
    Zr17    Zr   0.35963   0.53034   0.30656   1.000
    Zr18    Zr   0.11423   0.94423   0.28384   1.000
    Zr19    Zr   0.30656   0.80348   0.35963   1.000
    Zr20    Zr   0.94423   0.11423   0.65770   1.000
    Zr21    Zr   0.80348   0.30656   0.53034   1.000
    Zr22    Zr   0.65770   0.28384   0.94423   1.000
    Zr23    Zr   0.53034   0.35963   0.80348   1.000
    Zr24    Zr   0.13577   0.96616   0.30577   1.000
    Zr25    Zr   0.94344   0.89037   0.44652   1.000
    Zr26    Zr   0.96616   0.13577   0.59230   1.000
    Zr27    Zr   0.89037   0.94344   0.71966   1.000
    Zr28    Zr   0.59230   0.30577   0.96616   1.000
    Zr29    Zr   0.71966   0.44652   0.89037   1.000
    Zr30    Zr   0.30577   0.59230   0.13577   1.000
    Zr31    Zr   0.44652   0.71966   0.94344   1.000
    Zr32    Zr   0.59230   0.13577   0.30577   1.000
    Zr33    Zr   0.71966   0.94344   0.44652   1.000
    Zr34    Zr   0.30577   0.96616   0.59230   1.000
    Zr35    Zr   0.44652   0.89037   0.71966   1.000
    Zr36    Zr   0.13577   0.59230   0.96616   1.000
    Zr37    Zr   0.94344   0.71966   0.89037   1.000
    Zr38    Zr   0.96616   0.30577   0.13577   1.000
    Zr39    Zr   0.89037   0.44652   0.94344   1.000
    Zr40    Zr   0.96616   0.59230   0.30577   1.000
    Zr41    Zr   0.89037   0.71966   0.44652   1.000
    Zr42    Zr   0.13577   0.30577   0.59230   1.000
    Zr43    Zr   0.94344   0.44652   0.71966   1.000
    Zr44    Zr   0.30577   0.13577   0.96616   1.000
    Zr45    Zr   0.44652   0.94344   0.89037   1.000
    Zr46    Zr   0.59230   0.96616   0.13577   1.000
    Zr47    Zr   0.71966   0.89037   0.94344   1.000
    Zr48    Zr   0.13577   0.96616   0.59230   1.000
    Zr49    Zr   0.94344   0.89037   0.71966   1.000
    Zr50    Zr   0.96616   0.13577   0.30577   1.000
    Zr51    Zr   0.89037   0.94344   0.44652   1.000
    Zr52    Zr   0.59230   0.30577   0.13577   1.000
    Zr53    Zr   0.71966   0.44652   0.94344   1.000
    Zr54    Zr   0.30577   0.59230   0.96616   1.000
    Zr55    Zr   0.44652   0.71966   0.89037   1.000
    Zr56    Zr   0.59230   0.13577   0.96616   1.000
    Zr57    Zr   0.71966   0.94344   0.89037   1.000
    Zr58    Zr   0.30577   0.96616   0.13577   1.000
    Zr59    Zr   0.44652   0.89037   0.94344   1.000
    Zr60    Zr   0.13577   0.59230   0.30577   1.000
    Zr61    Zr   0.94344   0.71966   0.44652   1.000
    Zr62    Zr   0.96616   0.30577   0.59230   1.000
    Zr63    Zr   0.89037   0.44652   0.71966   1.000
    Zr64    Zr   0.96616   0.59230   0.13577   1.000
    Zr65    Zr   0.89037   0.71966   0.94344   1.000
    Zr66    Zr   0.13577   0.30577   0.96616   1.000
    Zr67    Zr   0.94344   0.44652   0.89037   1.000
    Zr68    Zr   0.30577   0.13577   0.59230   1.000
    Zr69    Zr   0.44652   0.94344   0.71966   1.000
    Zr70    Zr   0.59230   0.96616   0.30577   1.000
    Zr71    Zr   0.71966   0.89037   0.44652   1.000
    Zr72    Zr   0.11423   0.28384   0.94423   1.000
    Zr73    Zr   0.30656   0.35963   0.80348   1.000
    Zr74    Zr   0.28384   0.11423   0.65770   1.000
    Zr75    Zr   0.35963   0.30656   0.53034   1.000
    Zr76    Zr   0.65770   0.94423   0.28384   1.000
    Zr77    Zr   0.53034   0.80348   0.35963   1.000
    Zr78    Zr   0.94423   0.65770   0.11423   1.000
    Zr79    Zr   0.80348   0.53034   0.30656   1.000
    Zr80    Zr   0.65770   0.11423   0.94423   1.000
    Zr81    Zr   0.53034   0.30656   0.80348   1.000
    Zr82    Zr   0.94423   0.28384   0.65770   1.000
    Zr83    Zr   0.80348   0.35963   0.53034   1.000
    Zr84    Zr   0.11423   0.65770   0.28384   1.000
    Zr85    Zr   0.30656   0.53034   0.35963   1.000
    Zr86    Zr   0.28384   0.94423   0.11423   1.000
    Zr87    Zr   0.35963   0.80348   0.30656   1.000
    Zr88    Zr   0.28384   0.65770   0.94423   1.000
    Zr89    Zr   0.35963   0.53034   0.80348   1.000
    Zr90    Zr   0.11423   0.94423   0.65770   1.000
    Zr91    Zr   0.30656   0.80348   0.53034   1.000
    Zr92    Zr   0.94423   0.11423   0.28384   1.000
    Zr93    Zr   0.80348   0.30656   0.35963   1.000
    Zr94    Zr   0.65770   0.28384   0.11423   1.000
    Zr95    Zr   0.53034   0.35963   0.30656   1.000
    Zr96    Zr   0.41880   0.47185   0.47185   1.000
    Zr97    Zr   0.47185   0.41880   0.63750   1.000
    Zr98    Zr   0.47185   0.63750   0.41880   1.000
    Zr99    Zr   0.63750   0.47185   0.47185   1.000
    Zr100   Zr   0.47185   0.41880   0.47185   1.000
    Zr101   Zr   0.63750   0.47185   0.41880   1.000
    Zr102   Zr   0.41880   0.47185   0.63750   1.000
    Zr103   Zr   0.47185   0.63750   0.47185   1.000
    Zr104   Zr   0.47185   0.47185   0.41880   1.000
    Zr105   Zr   0.41880   0.63750   0.47185   1.000
    Zr106   Zr   0.63750   0.41880   0.47185   1.000
    Zr107   Zr   0.47185   0.47185   0.63750   1.000
    Zr108   Zr   0.83120   0.77815   0.61250   1.000
    Zr109   Zr   0.77815   0.83120   0.77815   1.000
    Zr110   Zr   0.77815   0.61250   0.77815   1.000
    Zr111   Zr   0.61250   0.77815   0.83120   1.000
    Zr112   Zr   0.77815   0.83120   0.61250   1.000
    Zr113   Zr   0.61250   0.77815   0.77815   1.000
    Zr114   Zr   0.83120   0.77815   0.77815   1.000
    Zr115   Zr   0.77815   0.61250   0.83120   1.000
    Zr116   Zr   0.77815   0.77815   0.61250   1.000
    Zr117   Zr   0.83120   0.61250   0.77815   1.000
    Zr118   Zr   0.61250   0.83120   0.77815   1.000
    Zr119   Zr   0.77815   0.77815   0.83120   1.000
    Zr120   Zr   0.12500   0.34065   0.62500   1.000
    Zr121   Zr   0.12500   0.31008   0.62500   1.000
    Zr122   Zr   0.34065   0.12500   0.90935   1.000
    Zr123   Zr   0.31008   0.12500   0.93992   1.000
    Zr124   Zr   0.62500   0.90935   0.12500   1.000
    Zr125   Zr   0.62500   0.93992   0.12500   1.000
    Zr126   Zr   0.90935   0.62500   0.34065   1.000
    Zr127   Zr   0.93992   0.62500   0.31008   1.000
    Zr128   Zr   0.62500   0.12500   0.34065   1.000
    Zr129   Zr   0.62500   0.12500   0.31008   1.000
    Zr130   Zr   0.90935   0.34065   0.12500   1.000
    Zr131   Zr   0.93992   0.31008   0.12500   1.000
    Zr132   Zr   0.12500   0.62500   0.90935   1.000
    Zr133   Zr   0.12500   0.62500   0.93992   1.000
    Zr134   Zr   0.34065   0.90935   0.62500   1.000
    Zr135   Zr   0.31008   0.93992   0.62500   1.000
    Zr136   Zr   0.34065   0.62500   0.12500   1.000
    Zr137   Zr   0.31008   0.62500   0.12500   1.000
    Zr138   Zr   0.12500   0.90935   0.34065   1.000
    Zr139   Zr   0.12500   0.93992   0.31008   1.000
    Zr140   Zr   0.90935   0.12500   0.62500   1.000
    Zr141   Zr   0.93992   0.12500   0.62500   1.000
    Zr142   Zr   0.62500   0.34065   0.90935   1.000
    Zr143   Zr   0.62500   0.31008   0.93992   1.000
    Zr144   Zr   0.12500   0.90935   0.62500   1.000
    Zr145   Zr   0.12500   0.93992   0.62500   1.000
    Zr146   Zr   0.90935   0.12500   0.34065   1.000
    Zr147   Zr   0.93992   0.12500   0.31008   1.000
    Zr148   Zr   0.62500   0.34065   0.12500   1.000
    Zr149   Zr   0.62500   0.31008   0.12500   1.000
    Zr150   Zr   0.34065   0.62500   0.90935   1.000
    Zr151   Zr   0.31008   0.62500   0.93992   1.000
    Zr152   Zr   0.62500   0.12500   0.90935   1.000
    Zr153   Zr   0.62500   0.12500   0.93992   1.000
    Zr154   Zr   0.34065   0.90935   0.12500   1.000
    Zr155   Zr   0.31008   0.93992   0.12500   1.000
    Zr156   Zr   0.12500   0.62500   0.34065   1.000
    Zr157   Zr   0.12500   0.62500   0.31008   1.000
    Zr158   Zr   0.90935   0.34065   0.62500   1.000
    Zr159   Zr   0.93992   0.31008   0.62500   1.000
    Zr160   Zr   0.90935   0.62500   0.12500   1.000
    Zr161   Zr   0.93992   0.62500   0.12500   1.000
    Zr162   Zr   0.12500   0.34065   0.90935   1.000
    Zr163   Zr   0.12500   0.31008   0.93992   1.000
    Zr164   Zr   0.34065   0.12500   0.62500   1.000
    Zr165   Zr   0.31008   0.12500   0.62500   1.000
    Zr166   Zr   0.62500   0.90935   0.34065   1.000
    Zr167   Zr   0.62500   0.93992   0.31008   1.000
    Zr168   Zr   0.22983   0.22983   0.77017   1.000
    Zr169   Zr   0.25157   0.25157   0.74843   1.000
    Zr170   Zr   0.77017   0.77017   0.22983   1.000
    Zr171   Zr   0.74843   0.74843   0.25157   1.000
    Zr172   Zr   0.77017   0.22983   0.22983   1.000
    Zr173   Zr   0.74843   0.25157   0.25157   1.000
    Zr174   Zr   0.22983   0.77017   0.77017   1.000
    Zr175   Zr   0.25157   0.74843   0.74843   1.000
    Zr176   Zr   0.22983   0.77017   0.22983   1.000
    Zr177   Zr   0.25157   0.74843   0.25157   1.000
    Zr178   Zr   0.77017   0.22983   0.77017   1.000
    Zr179   Zr   0.74843   0.25157   0.74843   1.000
    Zr180   Zr   0.02017   0.02017   0.47983   1.000
    Zr181   Zr   0.99843   0.99843   0.50157   1.000
    Zr182   Zr   0.47983   0.47983   0.02017   1.000
    Zr183   Zr   0.50157   0.50157   0.99843   1.000
    Zr184   Zr   0.47983   0.02017   0.47983   1.000
    Zr185   Zr   0.50157   0.99843   0.50157   1.000
    Zr186   Zr   0.02017   0.47983   0.02017   1.000
    Zr187   Zr   0.99843   0.50157   0.99843   1.000
    Zr188   Zr   0.02017   0.47983   0.47983   1.000
    Zr189   Zr   0.99843   0.50157   0.50157   1.000
    Zr190   Zr   0.47983   0.02017   0.02017   1.000
    Zr191   Zr   0.50157   0.99843   0.99843   1.000
    Zr192   Zr   0.23592   0.28896   0.73756   1.000
    Zr193   Zr   0.28896   0.23592   0.73756   1.000
    Zr194   Zr   0.73756   0.73756   0.23592   1.000
    Zr195   Zr   0.73756   0.73756   0.28896   1.000
    Zr196   Zr   0.73756   0.23592   0.28896   1.000
    Zr197   Zr   0.73756   0.28896   0.23592   1.000
    Zr198   Zr   0.23592   0.73756   0.73756   1.000
    Zr199   Zr   0.28896   0.73756   0.73756   1.000
    Zr200   Zr   0.28896   0.73756   0.23592   1.000
    Zr201   Zr   0.23592   0.73756   0.28896   1.000
    Zr202   Zr   0.73756   0.23592   0.73756   1.000
    Zr203   Zr   0.73756   0.28896   0.73756   1.000
    Zr204   Zr   0.01408   0.96104   0.51244   1.000
    Zr205   Zr   0.96104   0.01408   0.51244   1.000
    Zr206   Zr   0.51244   0.51244   0.96104   1.000
    Zr207   Zr   0.51244   0.51244   0.01408   1.000
    Zr208   Zr   0.51244   0.01408   0.51244   1.000
    Zr209   Zr   0.51244   0.96104   0.51244   1.000
    Zr210   Zr   0.01408   0.51244   0.96104   1.000
    Zr211   Zr   0.96104   0.51244   0.01408   1.000
    Zr212   Zr   0.96104   0.51244   0.51244   1.000
    Zr213   Zr   0.01408   0.51244   0.51244   1.000
    Zr214   Zr   0.51244   0.01408   0.96104   1.000
    Zr215   Zr   0.51244   0.96104   0.01408   1.000
    Zr216   Zr   0.32574   0.32574   0.49285   1.000
    Zr217   Zr   0.33063   0.33063   0.51787   1.000
    Zr218   Zr   0.32574   0.32574   0.85566   1.000
    Zr219   Zr   0.33063   0.33063   0.82086   1.000
    Zr220   Zr   0.49285   0.85566   0.32574   1.000
    Zr221   Zr   0.51787   0.82086   0.33063   1.000
    Zr222   Zr   0.85566   0.49285   0.32574   1.000
    Zr223   Zr   0.82086   0.51787   0.33063   1.000
    Zr224   Zr   0.49285   0.32574   0.32574   1.000
    Zr225   Zr   0.51787   0.33063   0.33063   1.000
    Zr226   Zr   0.85566   0.32574   0.32574   1.000
    Zr227   Zr   0.82086   0.33063   0.33063   1.000
    Zr228   Zr   0.32574   0.49285   0.85566   1.000
    Zr229   Zr   0.33063   0.51787   0.82086   1.000
    Zr230   Zr   0.32574   0.85566   0.49285   1.000
    Zr231   Zr   0.33063   0.82086   0.51787   1.000
    Zr232   Zr   0.32574   0.49285   0.32574   1.000
    Zr233   Zr   0.33063   0.51787   0.33063   1.000
    Zr234   Zr   0.32574   0.85566   0.32574   1.000
    Zr235   Zr   0.33063   0.82086   0.33063   1.000
    Zr236   Zr   0.85566   0.32574   0.49285   1.000
    Zr237   Zr   0.82086   0.33063   0.51787   1.000
    Zr238   Zr   0.49285   0.32574   0.85566   1.000
    Zr239   Zr   0.51787   0.33063   0.82086   1.000
    Zr240   Zr   0.92426   0.92426   0.39434   1.000
    Zr241   Zr   0.91937   0.91937   0.42914   1.000
    Zr242   Zr   0.92426   0.92426   0.75715   1.000
    Zr243   Zr   0.91937   0.91937   0.73213   1.000
    Zr244   Zr   0.75715   0.39434   0.92426   1.000
    Zr245   Zr   0.73213   0.42914   0.91937   1.000
    Zr246   Zr   0.39434   0.75715   0.92426   1.000
    Zr247   Zr   0.42914   0.73213   0.91937   1.000
    Zr248   Zr   0.75715   0.92426   0.39434   1.000
    Zr249   Zr   0.73213   0.91937   0.42914   1.000
    Zr250   Zr   0.39434   0.92426   0.75715   1.000
    Zr251   Zr   0.42914   0.91937   0.73213   1.000
    Zr252   Zr   0.92426   0.75715   0.92426   1.000
    Zr253   Zr   0.91937   0.73213   0.91937   1.000
    Zr254   Zr   0.92426   0.39434   0.92426   1.000
    Zr255   Zr   0.91937   0.42914   0.91937   1.000
    Zr256   Zr   0.92426   0.75715   0.39434   1.000
    Zr257   Zr   0.91937   0.73213   0.42914   1.000
    Zr258   Zr   0.92426   0.39434   0.75715   1.000
    Zr259   Zr   0.91937   0.42914   0.73213   1.000
    Zr260   Zr   0.39434   0.92426   0.92426   1.000
    Zr261   Zr   0.42914   0.91937   0.91937   1.000
    Zr262   Zr   0.75715   0.92426   0.92426   1.000
    Zr263   Zr   0.73213   0.91937   0.91937   1.000
    Zr264   Zr   0.45414   0.45414   0.45414   1.000
    Zr265   Zr   0.45414   0.45414   0.63759   1.000
    Zr266   Zr   0.45414   0.63759   0.45414   1.000
    Zr267   Zr   0.63759   0.45414   0.45414   1.000
    Zr268   Zr   0.79586   0.79586   0.61241   1.000
    Zr269   Zr   0.79586   0.79586   0.79586   1.000
    Zr270   Zr   0.79586   0.61241   0.79586   1.000
    Zr271   Zr   0.61241   0.79586   0.79586   1.000
    O272    O    0.50700   0.97974   0.00626   1.000
    O273    O    0.97974   0.50701   0.00626   1.000
    O274    O    0.50701   0.50701   0.00626   1.000
    O275    O    0.64135   0.29696   0.11962   1.000
    O276    O    0.32537   0.92463   0.12500   1.000
    O277    O    0.62500   0.92463   0.12500   1.000
    O278    O    0.60865   0.95304   0.13039   1.000
    O279    O    0.92463   0.32537   0.12500   1.000
    O280    O    0.30793   0.95304   0.13039   1.000
    O281    O    0.62500   0.32537   0.12500   1.000
    O282    O    0.92463   0.62500   0.12500   1.000
    O283    O    0.95304   0.60865   0.13039   1.000
    O284    O    0.32537   0.62500   0.12500   1.000
    O285    O    0.30792   0.60865   0.13039   1.000
    O286    O    0.95304   0.30792   0.13039   1.000
    O287    O    0.27026   0.74300   0.24375   1.000
    O288    O    0.74299   0.74300   0.24375   1.000
    O289    O    0.74299   0.27026   0.24375   1.000
    O290    O    0.74299   0.24375   0.27027   1.000
    O291    O    0.74299   0.74300   0.27027   1.000
    O292    O    0.24374   0.74300   0.27027   1.000
    O293    O    0.94207   0.64135   0.29696   1.000
    O294    O    0.11962   0.64135   0.29696   1.000
    O295    O    0.64135   0.11961   0.29696   1.000
    O296    O    0.95304   0.13038   0.30793   1.000
    O297    O    0.60865   0.95304   0.30793   1.000
    O298    O    0.13039   0.95304   0.30793   1.000
    O299    O    0.52411   0.34513   0.31860   1.000
    O300    O    0.34513   0.52410   0.31860   1.000
    O301    O    0.52410   0.81217   0.31860   1.000
    O302    O    0.34513   0.81217   0.31860   1.000
    O303    O    0.81217   0.34513   0.31860   1.000
    O304    O    0.81217   0.52410   0.31860   1.000
    O305    O    0.62500   0.12500   0.32537   1.000
    O306    O    0.12500   0.92463   0.32537   1.000
    O307    O    0.12500   0.62500   0.32537   1.000
    O308    O    0.62500   0.92463   0.32537   1.000
    O309    O    0.92463   0.12500   0.32537   1.000
    O310    O    0.92463   0.62500   0.32537   1.000
    O311    O    0.81217   0.31860   0.34513   1.000
    O312    O    0.31859   0.81217   0.34513   1.000
    O313    O    0.52411   0.81217   0.34513   1.000
    O314    O    0.31859   0.52411   0.34513   1.000
    O315    O    0.81217   0.52411   0.34513   1.000
    O316    O    0.52411   0.31860   0.34513   1.000
    O317    O    0.46300   0.63754   0.43647   1.000
    O318    O    0.46300   0.46299   0.43647   1.000
    O319    O    0.90487   0.72589   0.43783   1.000
    O320    O    0.93141   0.72589   0.43783   1.000
    O321    O    0.90487   0.93141   0.43783   1.000
    O322    O    0.93141   0.90487   0.43783   1.000
    O323    O    0.72589   0.90487   0.43783   1.000
    O324    O    0.72590   0.93141   0.43783   1.000
    O325    O    0.63755   0.46299   0.46300   1.000
    O326    O    0.63755   0.43647   0.46300   1.000
    O327    O    0.46299   0.63754   0.46300   1.000
    O328    O    0.46300   0.43647   0.46300   1.000
    O329    O    0.50700   0.97974   0.50701   1.000
    O330    O    0.50701   0.00626   0.50701   1.000
    O331    O    0.97974   0.50700   0.50701   1.000
    O332    O    0.00625   0.50700   0.50701   1.000
    O333    O    0.97974   0.00626   0.50701   1.000
    O334    O    0.00626   0.97974   0.50701   1.000
    O335    O    0.31859   0.34513   0.52411   1.000
    O336    O    0.34513   0.31860   0.52411   1.000
    O337    O    0.81217   0.34513   0.52411   1.000
    O338    O    0.81217   0.31860   0.52411   1.000
    O339    O    0.31860   0.81217   0.52411   1.000
    O340    O    0.34513   0.81217   0.52411   1.000
    O341    O    0.30792   0.13038   0.60865   1.000
    O342    O    0.13038   0.30793   0.60865   1.000
    O343    O    0.78701   0.81353   0.61246   1.000
    O344    O    0.78700   0.78701   0.61246   1.000
    O345    O    0.32536   0.12500   0.62500   1.000
    O346    O    0.12500   0.92463   0.62500   1.000
    O347    O    0.92463   0.32536   0.62500   1.000
    O348    O    0.94207   0.29696   0.64135   1.000
    O349    O    0.11961   0.94207   0.64135   1.000
    O350    O    0.12500   0.32536   0.62500   1.000
    O351    O    0.32537   0.92463   0.62500   1.000
    O352    O    0.29696   0.94207   0.64135   1.000
    O353    O    0.92463   0.12500   0.62500   1.000
    O354    O    0.94207   0.11962   0.64135   1.000
    O355    O    0.46300   0.46299   0.63755   1.000
    O356    O    0.46300   0.43647   0.63755   1.000
    O357    O    0.43783   0.93141   0.72590   1.000
    O358    O    0.90487   0.43783   0.72590   1.000
    O359    O    0.93141   0.43783   0.72590   1.000
    O360    O    0.43783   0.90487   0.72590   1.000
    O361    O    0.93141   0.90487   0.72590   1.000
    O362    O    0.90487   0.93141   0.72590   1.000
    O363    O    0.74300   0.24375   0.74300   1.000
    O364    O    0.27026   0.24375   0.74300   1.000
    O365    O    0.74299   0.27027   0.74300   1.000
    O366    O    0.24374   0.74299   0.74300   1.000
    O367    O    0.24374   0.27027   0.74300   1.000
    O368    O    0.27026   0.74299   0.74300   1.000
    O369    O    0.78701   0.81353   0.78701   1.000
    O370    O    0.78700   0.61246   0.78701   1.000
    O371    O    0.61245   0.78701   0.78701   1.000
    O372    O    0.81353   0.61246   0.78701   1.000
    O373    O    0.61246   0.78701   0.81353   1.000
    O374    O    0.78701   0.78701   0.81353   1.000
    O375    O    0.52411   0.34513   0.81217   1.000
    O376    O    0.31859   0.34513   0.81217   1.000
    O377    O    0.52410   0.31860   0.81217   1.000
    O378    O    0.34513   0.52410   0.81217   1.000
    O379    O    0.31859   0.52410   0.81217   1.000
    O380    O    0.34513   0.31860   0.81217   1.000
    O381    O    0.93141   0.72589   0.90487   1.000
    O382    O    0.72589   0.93141   0.90487   1.000
    O383    O    0.43783   0.72589   0.90487   1.000
    O384    O    0.43783   0.93141   0.90487   1.000
    O385    O    0.72589   0.43783   0.90487   1.000
    O386    O    0.93141   0.43783   0.90487   1.000
    O387    O    0.62500   0.12500   0.92464   1.000
    O388    O    0.32536   0.12500   0.92464   1.000
    O389    O    0.12500   0.62500   0.92464   1.000
    O390    O    0.62500   0.32537   0.92464   1.000
    O391    O    0.12500   0.32537   0.92464   1.000
    O392    O    0.32537   0.62500   0.92464   1.000
    O393    O    0.43783   0.72590   0.93141   1.000
    O394    O    0.72590   0.43783   0.93141   1.000
    O395    O    0.72589   0.90487   0.93141   1.000
    O396    O    0.90487   0.43783   0.93141   1.000
    O397    O    0.43783   0.90487   0.93141   1.000
    O398    O    0.90487   0.72590   0.93141   1.000
    O399    O    0.11961   0.64135   0.94208   1.000
    O400    O    0.13039   0.30793   0.95304   1.000
    O401    O    0.64135   0.11961   0.94208   1.000
    O402    O    0.29696   0.64135   0.94208   1.000
    O403    O    0.64135   0.29696   0.94208   1.000
    O404    O    0.30792   0.13039   0.95304   1.000
    O405    O    0.50701   0.00625   0.97974   1.000
    O406    O    0.00626   0.50700   0.97974   1.000
    O407    O    0.50700   0.50700   0.97974   1.000
    O408    O    0.11961   0.29696   0.64135   1.000
    O409    O    0.29696   0.11961   0.94208   1.000
    O410    O    0.64135   0.94208   0.11962   1.000
    O411    O    0.95304   0.60865   0.30793   1.000
    O412    O    0.60865   0.13038   0.30793   1.000
    O413    O    0.94207   0.29696   0.11962   1.000
    O414    O    0.13039   0.60865   0.95304   1.000
    O415    O    0.30792   0.95304   0.60865   1.000
    O416    O    0.29696   0.64135   0.11962   1.000
    O417    O    0.11961   0.94208   0.29696   1.000
    O418    O    0.95304   0.13038   0.60865   1.000
    O419    O    0.60865   0.30793   0.95304   1.000
    O420    O    0.13038   0.95304   0.60865   1.000
    O421    O    0.94207   0.11961   0.29696   1.000
    O422    O    0.60865   0.30792   0.13039   1.000
    O423    O    0.30792   0.60865   0.95304   1.000
    O424    O    0.60865   0.13039   0.95304   1.000
    O425    O    0.29696   0.94208   0.11962   1.000
    O426    O    0.13038   0.60865   0.30793   1.000
    O427    O    0.95304   0.30793   0.60865   1.000
    O428    O    0.94208   0.64135   0.11962   1.000
    O429    O    0.11962   0.29696   0.94208   1.000
    O430    O    0.29696   0.11962   0.64135   1.000
    O431    O    0.64135   0.94208   0.29696   1.000
    O432    O    0.24070   0.24070   0.75930   1.000
    O433    O    0.75930   0.75930   0.24070   1.000
    O434    O    0.75930   0.24070   0.24070   1.000
    O435    O    0.24070   0.75930   0.75930   1.000
    O436    O    0.24070   0.75930   0.24070   1.000
    O437    O    0.75930   0.24070   0.75930   1.000
    O438    O    0.00930   0.00930   0.49070   1.000
    O439    O    0.49070   0.49070   0.00930   1.000
    O440    O    0.49070   0.00930   0.49070   1.000
    O441    O    0.00930   0.49070   0.00930   1.000
    O442    O    0.00930   0.49070   0.49070   1.000
    O443    O    0.49070   0.00930   0.00930   1.000
    O444    O    0.32819   0.32818   0.50536   1.000
    O445    O    0.32819   0.32818   0.83826   1.000
    O446    O    0.50536   0.83826   0.32819   1.000
    O447    O    0.83826   0.50536   0.32819   1.000
    O448    O    0.50536   0.32818   0.32819   1.000
    O449    O    0.83826   0.32818   0.32819   1.000
    O450    O    0.32818   0.50536   0.83826   1.000
    O451    O    0.32819   0.83826   0.50536   1.000
    O452    O    0.32819   0.50536   0.32819   1.000
    O453    O    0.32819   0.83826   0.32819   1.000
    O454    O    0.83826   0.32818   0.50536   1.000
    O455    O    0.50536   0.32818   0.83826   1.000
    O456    O    0.92182   0.92182   0.41174   1.000
    O457    O    0.92182   0.92182   0.74464   1.000
    O458    O    0.74464   0.41174   0.92182   1.000
    O459    O    0.41174   0.74464   0.92182   1.000
    O460    O    0.74464   0.92182   0.41174   1.000
    O461    O    0.41174   0.92182   0.74464   1.000
    O462    O    0.92182   0.74464   0.92182   1.000
    O463    O    0.92182   0.41174   0.92182   1.000
    O464    O    0.92181   0.74464   0.41174   1.000
    O465    O    0.92181   0.41174   0.74464   1.000
    O466    O    0.41174   0.92181   0.92182   1.000
    O467    O    0.74464   0.92181   0.92182   1.000
    O468    O    0.43647   0.46299   0.46300   1.000
    O469    O    0.43647   0.46299   0.63755   1.000
    O470    O    0.43647   0.63754   0.46300   1.000
    O471    O    0.63755   0.46299   0.43647   1.000
    O472    O    0.81353   0.78701   0.61246   1.000
    O473    O    0.81353   0.78701   0.78701   1.000
    O474    O    0.78701   0.61246   0.81353   1.000
    O475    O    0.61245   0.81353   0.78701   1.000
    N476    N    0.20562   0.20562   0.96380   1.000
    O477    O    0.23783   0.16722   0.95634   1.000
    O478    O    0.16722   0.23783   0.95634   1.000
    O479    O    0.17604   0.24689   0.96569   1.000
    O480    O    0.24689   0.17604   0.96569   1.000
    N481    N    0.76792   0.29883   0.29883   1.000
    O482    O    0.75486   0.29502   0.27290   1.000
    O483    O    0.78268   0.30200   0.32414   1.000
    O484    O    0.75486   0.27290   0.29502   1.000
    O485    O    0.78268   0.32414   0.30200   1.000
    N486    N    0.88792   0.22227   0.33589   1.000
    O487    O    0.87478   0.26511   0.33216   1.000
    O488    O    0.85299   0.25714   0.34618   1.000
    O489    O    0.89733   0.18173   0.33787   1.000
    O490    O    0.92086   0.18655   0.32312   1.000
    N491    N    0.88792   0.55392   0.22227   1.000
    O492    O    0.87478   0.52795   0.26511   1.000
    O493    O    0.92086   0.56947   0.18655   1.000
    O494    O    0.85299   0.54369   0.25714   1.000
    O495    O    0.89733   0.58307   0.18173   1.000
    N496    N    0.36208   0.02773   0.91411   1.000
    O497    O    0.32914   0.06345   0.92688   1.000
    O498    O    0.39701   0.99286   0.90382   1.000
    O499    O    0.35267   0.06827   0.91213   1.000
    O500    O    0.37522   0.98489   0.91784   1.000
    N501    N    0.84016   0.17314   0.28583   1.000
    O502    O    0.86904   0.15333   0.30845   1.000
    O503    O    0.81096   0.19602   0.26269   1.000
    O504    O    0.79733   0.19860   0.28732   1.000
    O505    O    0.88348   0.14862   0.28485   1.000
    N506    N    0.88792   0.33589   0.22227   1.000
    O507    O    0.87478   0.33216   0.26511   1.000
    O508    O    0.85299   0.34618   0.25714   1.000
    O509    O    0.92086   0.32312   0.18655   1.000
    O510    O    0.89733   0.33787   0.18173   1.000
    N511    N    0.91411   0.02773   0.36208   1.000
    O512    O    0.92688   0.06345   0.32914   1.000
    O513    O    0.90382   0.99286   0.39701   1.000
    O514    O    0.91213   0.06827   0.35267   1.000
    O515    O    0.91784   0.98489   0.37522   1.000
    N516    N    0.55773   0.44227   0.44227   1.000
    O517    O    0.59105   0.45435   0.43223   1.000
    O518    O    0.52236   0.45435   0.43223   1.000
    O519    O    0.52236   0.43223   0.45435   1.000
    O520    O    0.59105   0.43223   0.45435   1.000
    N521    N    0.71691   0.38801   0.38801   1.000
    O522    O    0.75249   0.37612   0.35396   1.000
    O523    O    0.68376   0.42285   0.40071   1.000
    O524    O    0.75249   0.35396   0.37612   1.000
    O525    O    0.68376   0.40071   0.42285   1.000
    N526    N    0.83087   0.31154   0.42880   1.000
    O527    O    0.84128   0.31713   0.38604   1.000
    O528    O    0.81960   0.30900   0.40023   1.000
    O529    O    0.81960   0.30900   0.47117   1.000
    O530    O    0.84128   0.31713   0.45555   1.000
    N531    N    0.96379   0.20562   0.20562   1.000
    O532    O    0.95634   0.23783   0.16722   1.000
    O533    O    0.96569   0.24689   0.17604   1.000
    O534    O    0.96569   0.17604   0.24689   1.000
    O535    O    0.95633   0.16722   0.23783   1.000
    N536    N    0.28583   0.17314   0.84016   1.000
    O537    O    0.26269   0.19602   0.81096   1.000
    O538    O    0.28732   0.19860   0.79733   1.000
    O539    O    0.30845   0.15333   0.86904   1.000
    O540    O    0.28485   0.14862   0.88348   1.000
    N541    N    0.33589   0.22227   0.55392   1.000
    O542    O    0.33216   0.26511   0.52795   1.000
    O543    O    0.32312   0.18655   0.56947   1.000
    O544    O    0.34618   0.25714   0.54369   1.000
    O545    O    0.33787   0.18173   0.58307   1.000
    N546    N    0.29883   0.29883   0.63443   1.000
    O547    O    0.27290   0.29502   0.67723   1.000
    O548    O    0.30200   0.32414   0.59119   1.000
    O549    O    0.32414   0.30200   0.59119   1.000
    O550    O    0.29502   0.27290   0.67723   1.000
    N551    N    0.17314   0.28583   0.70086   1.000
    O552    O    0.19860   0.28732   0.71675   1.000
    O553    O    0.19602   0.26269   0.73032   1.000
    O554    O    0.15333   0.30845   0.66918   1.000
    O555    O    0.14862   0.28485   0.68305   1.000
    N556    N    0.38801   0.38801   0.50707   1.000
    O557    O    0.40071   0.42285   0.49269   1.000
    O558    O    0.35396   0.37612   0.51743   1.000
    O559    O    0.37612   0.35396   0.51743   1.000
    O560    O    0.42285   0.40071   0.49269   1.000
    N561    N    0.44227   0.44227   0.55773   1.000
    O562    O    0.43223   0.45435   0.52236   1.000
    O563    O    0.45435   0.43223   0.59105   1.000
    O564    O    0.45435   0.43223   0.52236   1.000
    O565    O    0.43223   0.45435   0.59105   1.000
    N566    N    0.20562   0.20562   0.62498   1.000
    O567    O    0.16722   0.23783   0.63862   1.000
    O568    O    0.23783   0.16722   0.63862   1.000
    O569    O    0.24689   0.17604   0.61139   1.000
    O570    O    0.17604   0.24689   0.61139   1.000
    N571    N    0.31154   0.42880   0.42880   1.000
    O572    O    0.30900   0.40023   0.47117   1.000
    O573    O    0.31713   0.38604   0.45555   1.000
    O574    O    0.30900   0.47117   0.40023   1.000
    O575    O    0.31713   0.45555   0.38604   1.000
    N576    N    0.22227   0.33589   0.55392   1.000
    O577    O    0.18173   0.33787   0.58307   1.000
    O578    O    0.25714   0.34618   0.54369   1.000
    O579    O    0.26511   0.33216   0.52795   1.000
    O580    O    0.18655   0.32312   0.56947   1.000
    N581    N    0.02773   0.36208   0.69608   1.000
    O582    O    0.06345   0.32914   0.68053   1.000
    O583    O    0.99286   0.39701   0.70631   1.000
    O584    O    0.06827   0.35267   0.66693   1.000
    O585    O    0.98489   0.37522   0.72205   1.000
    N586    N    0.04438   0.28621   0.62503   1.000
    O587    O    0.07396   0.28431   0.63861   1.000
    O588    O    0.08278   0.29367   0.61139   1.000
    O589    O    0.01217   0.29367   0.61139   1.000
    O590    O    0.00311   0.28431   0.63861   1.000
    N591    N    0.42880   0.31154   0.42880   1.000
    O592    O    0.38604   0.31713   0.45555   1.000
    O593    O    0.45555   0.31713   0.38604   1.000
    O594    O    0.40023   0.30900   0.47117   1.000
    O595    O    0.47117   0.30900   0.40023   1.000
    N596    N    0.22227   0.33589   0.88792   1.000
    O597    O    0.25714   0.34618   0.85299   1.000
    O598    O    0.18173   0.33787   0.89733   1.000
    O599    O    0.18655   0.32312   0.92086   1.000
    O600    O    0.26511   0.33216   0.87478   1.000
    N601    N    0.29883   0.29883   0.76792   1.000
    O602    O    0.29502   0.27290   0.75486   1.000
    O603    O    0.30200   0.32414   0.78268   1.000
    O604    O    0.27290   0.29502   0.75486   1.000
    O605    O    0.32414   0.30200   0.78268   1.000
    N606    N    0.42880   0.83087   0.31154   1.000
    O607    O    0.38604   0.84128   0.31713   1.000
    O608    O    0.40023   0.81960   0.30900   1.000
    O609    O    0.45555   0.84128   0.31713   1.000
    O610    O    0.47117   0.81960   0.30900   1.000
    N611    N    0.55392   0.88792   0.33589   1.000
    O612    O    0.52795   0.87478   0.33216   1.000
    O613    O    0.56947   0.92086   0.32312   1.000
    O614    O    0.54369   0.85299   0.34618   1.000
    O615    O    0.58307   0.89733   0.33787   1.000
    N616    N    0.38801   0.50707   0.71691   1.000
    O617    O    0.35396   0.51743   0.75249   1.000
    O618    O    0.37612   0.51743   0.75249   1.000
    O619    O    0.42285   0.49269   0.68376   1.000
    O620    O    0.40071   0.49269   0.68376   1.000
    N621    N    0.31154   0.42880   0.83087   1.000
    O622    O    0.31713   0.38604   0.84128   1.000
    O623    O    0.31713   0.45555   0.84128   1.000
    O624    O    0.30900   0.40023   0.81960   1.000
    O625    O    0.30900   0.47117   0.81960   1.000
    N626    N    0.28583   0.84016   0.70086   1.000
    O627    O    0.30845   0.86904   0.66918   1.000
    O628    O    0.26269   0.81096   0.73032   1.000
    O629    O    0.28732   0.79733   0.71675   1.000
    O630    O    0.28485   0.88348   0.68305   1.000
    N631    N    0.29883   0.76792   0.63443   1.000
    O632    O    0.32414   0.78268   0.59119   1.000
    O633    O    0.30200   0.78268   0.59119   1.000
    O634    O    0.27290   0.75486   0.67723   1.000
    O635    O    0.29502   0.75486   0.67723   1.000
    N636    N    0.07686   0.96417   0.54914   1.000
    O637    O    0.10138   0.96515   0.56695   1.000
    O638    O    0.09667   0.94155   0.58082   1.000
    O639    O    0.05398   0.98731   0.51968   1.000
    O640    O    0.05140   0.96268   0.53325   1.000
    N641    N    0.95117   0.95117   0.61557   1.000
    O642    O    0.94800   0.92586   0.65881   1.000
    O643    O    0.97710   0.95498   0.57277   1.000
    O644    O    0.92586   0.94800   0.65881   1.000
    O645    O    0.95498   0.97710   0.57277   1.000
    N646    N    0.91411   0.02773   0.69608   1.000
    O647    O    0.92688   0.06345   0.68053   1.000
    O648    O    0.91784   0.98489   0.72205   1.000
    O649    O    0.90382   0.99286   0.70631   1.000
    O650    O    0.91213   0.06827   0.66693   1.000
    N651    N    0.38801   0.71691   0.38801   1.000
    O652    O    0.37612   0.75249   0.35396   1.000
    O653    O    0.42285   0.68376   0.40071   1.000
    O654    O    0.35396   0.75249   0.37612   1.000
    O655    O    0.40071   0.68376   0.42285   1.000
    N656    N    0.31154   0.83087   0.42880   1.000
    O657    O    0.30900   0.81960   0.40023   1.000
    O658    O    0.31713   0.84128   0.38604   1.000
    O659    O    0.30900   0.81960   0.47117   1.000
    O660    O    0.31713   0.84128   0.45555   1.000
    N661    N    0.20562   0.96379   0.20562   1.000
    O662    O    0.16722   0.95633   0.23783   1.000
    O663    O    0.24689   0.96569   0.17604   1.000
    O664    O    0.23783   0.95634   0.16722   1.000
    O665    O    0.17604   0.96569   0.24689   1.000
    N666    N    0.70086   0.84016   0.17314   1.000
    O667    O    0.73032   0.81096   0.19602   1.000
    O668    O    0.66918   0.86904   0.15333   1.000
    O669    O    0.71675   0.79733   0.19860   1.000
    O670    O    0.68305   0.88348   0.14862   1.000
    N671    N    0.63443   0.76792   0.29883   1.000
    O672    O    0.59119   0.78268   0.30200   1.000
    O673    O    0.67723   0.75486   0.27290   1.000
    O674    O    0.59119   0.78268   0.32414   1.000
    O675    O    0.67723   0.75486   0.29502   1.000
    N676    N    0.55773   0.55773   0.44227   1.000
    O677    O    0.52236   0.59105   0.43223   1.000
    O678    O    0.59105   0.52236   0.43223   1.000
    O679    O    0.59105   0.52236   0.45435   1.000
    O680    O    0.52236   0.59105   0.45435   1.000
    N681    N    0.22227   0.55392   0.33589   1.000
    O682    O    0.26511   0.52795   0.33216   1.000
    O683    O    0.25714   0.54369   0.34618   1.000
    O684    O    0.18173   0.58307   0.33787   1.000
    O685    O    0.18655   0.56947   0.32312   1.000
    N686    N    0.44227   0.55773   0.44227   1.000
    O687    O    0.45435   0.52236   0.43223   1.000
    O688    O    0.43223   0.52236   0.45435   1.000
    O689    O    0.45435   0.59105   0.43223   1.000
    O690    O    0.43223   0.59105   0.45435   1.000
    N691    N    0.55392   0.33589   0.22227   1.000
    O692    O    0.56947   0.32312   0.18655   1.000
    O693    O    0.54369   0.34618   0.25714   1.000
    O694    O    0.58307   0.33787   0.18173   1.000
    O695    O    0.52795   0.33216   0.26511   1.000
    N696    N    0.55392   0.88792   0.22227   1.000
    O697    O    0.58307   0.89733   0.18173   1.000
    O698    O    0.54369   0.85299   0.25714   1.000
    O699    O    0.56947   0.92086   0.18655   1.000
    O700    O    0.52795   0.87478   0.26511   1.000
    N701    N    0.50707   0.71691   0.38801   1.000
    O702    O    0.51743   0.75249   0.35396   1.000
    O703    O    0.51743   0.75249   0.37612   1.000
    O704    O    0.49269   0.68376   0.42285   1.000
    O705    O    0.49269   0.68376   0.40071   1.000
    N706    N    0.62498   0.20562   0.96380   1.000
    O707    O    0.61139   0.24689   0.96569   1.000
    O708    O    0.63861   0.16722   0.95634   1.000
    O709    O    0.63862   0.23783   0.95634   1.000
    O710    O    0.61139   0.17604   0.96569   1.000
    N711    N    0.54914   0.40984   0.96417   1.000
    O712    O    0.56695   0.36652   0.96515   1.000
    O713    O    0.58082   0.38096   0.94155   1.000
    O714    O    0.51968   0.43904   0.98731   1.000
    O715    O    0.53325   0.45267   0.96268   1.000
    N716    N    0.61557   0.48208   0.95117   1.000
    O717    O    0.65881   0.46732   0.92586   1.000
    O718    O    0.65881   0.46732   0.94800   1.000
    O719    O    0.57277   0.49514   0.97710   1.000
    O720    O    0.57277   0.49514   0.95498   1.000
    N721    N    0.62497   0.96379   0.20562   1.000
    O722    O    0.61139   0.96569   0.24689   1.000
    O723    O    0.63861   0.95633   0.23783   1.000
    O724    O    0.63861   0.95634   0.16722   1.000
    O725    O    0.61139   0.96569   0.17604   1.000
    N726    N    0.02773   0.91411   0.69608   1.000
    O727    O    0.06345   0.92688   0.68053   1.000
    O728    O    0.99286   0.90382   0.70631   1.000
    O729    O    0.06827   0.91213   0.66693   1.000
    O730    O    0.98489   0.91784   0.72205   1.000
    N731    N    0.88792   0.22227   0.55392   1.000
    O732    O    0.85299   0.25714   0.54369   1.000
    O733    O    0.89733   0.18173   0.58307   1.000
    O734    O    0.87478   0.26511   0.52795   1.000
    O735    O    0.92086   0.18655   0.56947   1.000
    N736    N    0.33589   0.88792   0.55392   1.000
    O737    O    0.33216   0.87478   0.52795   1.000
    O738    O    0.32312   0.92086   0.56947   1.000
    O739    O    0.34618   0.85299   0.54369   1.000
    O740    O    0.33787   0.89733   0.58307   1.000
    N741    N    0.88792   0.33589   0.55392   1.000
    O742    O    0.87478   0.33216   0.52795   1.000
    O743    O    0.85299   0.34618   0.54369   1.000
    O744    O    0.89733   0.33787   0.58307   1.000
    O745    O    0.92086   0.32312   0.56947   1.000
    N746    N    0.96417   0.07686   0.54914   1.000
    O747    O    0.96515   0.10138   0.56695   1.000
    O748    O    0.94155   0.09667   0.58082   1.000
    O749    O    0.98731   0.05398   0.51968   1.000
    O750    O    0.96268   0.05140   0.53325   1.000
    N751    N    0.07686   0.40984   0.54914   1.000
    O752    O    0.10138   0.36652   0.56695   1.000
    O753    O    0.09667   0.38096   0.58082   1.000
    O754    O    0.05398   0.43904   0.51968   1.000
    O755    O    0.05140   0.45267   0.53325   1.000
    N756    N    0.40984   0.96417   0.54914   1.000
    O757    O    0.36652   0.96515   0.56695   1.000
    O758    O    0.38096   0.94155   0.58082   1.000
    O759    O    0.43904   0.98731   0.51968   1.000
    O760    O    0.45267   0.96268   0.53325   1.000
    N761    N    0.96417   0.40984   0.54914   1.000
    O762    O    0.96515   0.36652   0.56695   1.000
    O763    O    0.94155   0.38096   0.58082   1.000
    O764    O    0.98731   0.43904   0.51968   1.000
    O765    O    0.96268   0.45267   0.53325   1.000
    N766    N    0.40984   0.07686   0.54914   1.000
    O767    O    0.36652   0.10138   0.56695   1.000
    O768    O    0.38096   0.09667   0.58082   1.000
    O769    O    0.43904   0.05398   0.51968   1.000
    O770    O    0.45267   0.05140   0.53325   1.000
    N771    N    0.70086   0.17314   0.28583   1.000
    O772    O    0.66918   0.15333   0.30845   1.000
    O773    O    0.68305   0.14862   0.28485   1.000
    O774    O    0.71675   0.19860   0.28732   1.000
    O775    O    0.73032   0.19602   0.26269   1.000
    N776    N    0.42880   0.83087   0.42880   1.000
    O777    O    0.47117   0.81960   0.40023   1.000
    O778    O    0.45555   0.84128   0.38604   1.000
    O779    O    0.40023   0.81960   0.47117   1.000
    O780    O    0.38604   0.84128   0.45555   1.000
    N781    N    0.20562   0.62497   0.20562   1.000
    O782    O    0.24689   0.61139   0.17604   1.000
    O783    O    0.17604   0.61139   0.24689   1.000
    O784    O    0.16722   0.63861   0.23783   1.000
    O785    O    0.23783   0.63861   0.16722   1.000
    N786    N    0.28583   0.70086   0.17314   1.000
    O787    O    0.30845   0.66918   0.15333   1.000
    O788    O    0.26269   0.73032   0.19602   1.000
    O789    O    0.28732   0.71675   0.19860   1.000
    O790    O    0.28485   0.68305   0.14862   1.000
    N791    N    0.44227   0.55773   0.55773   1.000
    O792    O    0.43223   0.52236   0.59105   1.000
    O793    O    0.45435   0.52236   0.59105   1.000
    O794    O    0.45435   0.59105   0.52236   1.000
    O795    O    0.43223   0.59105   0.52236   1.000
    N796    N    0.69608   0.91411   0.02773   1.000
    O797    O    0.66693   0.91213   0.06827   1.000
    O798    O    0.68053   0.92688   0.06345   1.000
    O799    O    0.70631   0.90382   0.99286   1.000
    O800    O    0.72205   0.91784   0.98489   1.000
    N801    N    0.17314   0.84016   0.70086   1.000
    O802    O    0.19602   0.81096   0.73032   1.000
    O803    O    0.19860   0.79733   0.71675   1.000
    O804    O    0.14862   0.88348   0.68305   1.000
    O805    O    0.15333   0.86904   0.66918   1.000
    N806    N    0.86199   0.74293   0.53309   1.000
    O807    O    0.87388   0.73257   0.49751   1.000
    O808    O    0.82715   0.75731   0.56624   1.000
    O809    O    0.89604   0.73257   0.49751   1.000
    O810    O    0.84929   0.75731   0.56624   1.000
    N811    N    0.74294   0.86199   0.53309   1.000
    O812    O    0.73257   0.87388   0.49751   1.000
    O813    O    0.75731   0.82715   0.56624   1.000
    O814    O    0.73257   0.89604   0.49751   1.000
    O815    O    0.75731   0.84929   0.56624   1.000
    N816    N    0.86199   0.86199   0.53309   1.000
    O817    O    0.87388   0.89604   0.49751   1.000
    O818    O    0.82715   0.84929   0.56624   1.000
    O819    O    0.89604   0.87388   0.49751   1.000
    O820    O    0.84929   0.82715   0.56624   1.000
    N821    N    0.22227   0.88792   0.55392   1.000
    O822    O    0.25714   0.85299   0.54369   1.000
    O823    O    0.18173   0.89733   0.58307   1.000
    O824    O    0.18655   0.92086   0.56947   1.000
    O825    O    0.26511   0.87478   0.52795   1.000
    N826    N    0.17314   0.70086   0.84016   1.000
    O827    O    0.19860   0.71675   0.79733   1.000
    O828    O    0.15333   0.66918   0.86904   1.000
    O829    O    0.19602   0.73032   0.81096   1.000
    O830    O    0.14862   0.68305   0.88348   1.000
    N831    N    0.33589   0.88792   0.22227   1.000
    O832    O    0.34618   0.85299   0.25714   1.000
    O833    O    0.33787   0.89733   0.18173   1.000
    O834    O    0.33216   0.87478   0.26511   1.000
    O835    O    0.32312   0.92086   0.18655   1.000
    N836    N    0.02773   0.91411   0.36208   1.000
    O837    O    0.98489   0.91784   0.37522   1.000
    O838    O    0.06827   0.91213   0.35267   1.000
    O839    O    0.06345   0.92688   0.32914   1.000
    O840    O    0.99286   0.90382   0.39701   1.000
    N841    N    0.20562   0.96379   0.62498   1.000
    O842    O    0.24689   0.96569   0.61139   1.000
    O843    O    0.17604   0.96569   0.61139   1.000
    O844    O    0.16722   0.95633   0.63862   1.000
    O845    O    0.23783   0.95633   0.63862   1.000
    N846    N    0.04438   0.04438   0.28621   1.000
    O847    O    0.07396   0.00311   0.28431   1.000
    O848    O    0.08278   0.01217   0.29367   1.000
    O849    O    0.01217   0.08278   0.29367   1.000
    O850    O    0.00311   0.07396   0.28431   1.000
    N851    N    0.17314   0.84016   0.28583   1.000
    O852    O    0.14862   0.88348   0.28485   1.000
    O853    O    0.15333   0.86904   0.30845   1.000
    O854    O    0.19602   0.81096   0.26269   1.000
    O855    O    0.19860   0.79733   0.28732   1.000
    N856    N    0.33589   0.55392   0.22227   1.000
    O857    O    0.34618   0.54369   0.25714   1.000
    O858    O    0.33787   0.58307   0.18173   1.000
    O859    O    0.33216   0.52795   0.26511   1.000
    O860    O    0.32312   0.56947   0.18655   1.000
    N861    N    0.36208   0.69608   0.02773   1.000
    O862    O    0.32914   0.68053   0.06345   1.000
    O863    O    0.37522   0.72205   0.98489   1.000
    O864    O    0.39701   0.70631   0.99286   1.000
    O865    O    0.35267   0.66693   0.06827   1.000
    N866    N    0.48208   0.61557   0.95117   1.000
    O867    O    0.46732   0.65881   0.92586   1.000
    O868    O    0.49514   0.57277   0.95498   1.000
    O869    O    0.46732   0.65881   0.94800   1.000
    O870    O    0.49514   0.57277   0.97710   1.000
    N871    N    0.36208   0.69608   0.91411   1.000
    O872    O    0.39701   0.70631   0.90382   1.000
    O873    O    0.35267   0.66693   0.91213   1.000
    O874    O    0.37522   0.72205   0.91784   1.000
    O875    O    0.32914   0.68053   0.92688   1.000
    N876    N    0.20562   0.62498   0.96380   1.000
    O877    O    0.24689   0.61139   0.96569   1.000
    O878    O    0.23783   0.63861   0.95634   1.000
    O879    O    0.17604   0.61139   0.96569   1.000
    O880    O    0.16722   0.63861   0.95634   1.000
    N881    N    0.96417   0.07686   0.40984   1.000
    O882    O    0.94155   0.09667   0.38096   1.000
    O883    O    0.98731   0.05398   0.43904   1.000
    O884    O    0.96268   0.05140   0.45267   1.000
    O885    O    0.96515   0.10138   0.36652   1.000
    N886    N    0.95117   0.95117   0.48208   1.000
    O887    O    0.92586   0.94800   0.46732   1.000
    O888    O    0.95498   0.97710   0.49514   1.000
    O889    O    0.94800   0.92586   0.46732   1.000
    O890    O    0.97710   0.95498   0.49514   1.000
    N891    N    0.80773   0.80773   0.69227   1.000
    O892    O    0.81777   0.79565   0.72764   1.000
    O893    O    0.79565   0.81777   0.65895   1.000
    O894    O    0.81777   0.79565   0.65895   1.000
    O895    O    0.79565   0.81777   0.72764   1.000
    N896    N    0.71691   0.38801   0.50707   1.000
    O897    O    0.75249   0.35396   0.51743   1.000
    O898    O    0.68376   0.40071   0.49269   1.000
    O899    O    0.75249   0.37612   0.51743   1.000
    O900    O    0.68376   0.42285   0.49269   1.000
    N901    N    0.38801   0.71691   0.50707   1.000
    O902    O    0.37612   0.75249   0.51743   1.000
    O903    O    0.42285   0.68376   0.49269   1.000
    O904    O    0.35396   0.75249   0.51743   1.000
    O905    O    0.40071   0.68376   0.49269   1.000
    N906    N    0.38801   0.50706   0.38801   1.000
    O907    O    0.37612   0.51743   0.35396   1.000
    O908    O    0.42285   0.49269   0.40071   1.000
    O909    O    0.35396   0.51743   0.37612   1.000
    O910    O    0.40071   0.49269   0.42285   1.000
    N911    N    0.29883   0.76792   0.29883   1.000
    O912    O    0.30200   0.78268   0.32414   1.000
    O913    O    0.27290   0.75486   0.29502   1.000
    O914    O    0.32414   0.78268   0.30200   1.000
    O915    O    0.29502   0.75486   0.27290   1.000
    N916    N    0.93846   0.82120   0.41913   1.000
    O917    O    0.94100   0.77883   0.43040   1.000
    O918    O    0.93287   0.86396   0.40872   1.000
    O919    O    0.93287   0.79445   0.40872   1.000
    O920    O    0.94100   0.84977   0.43040   1.000
    N921    N    0.17314   0.70086   0.28583   1.000
    O922    O    0.14862   0.68305   0.28485   1.000
    O923    O    0.15333   0.66918   0.30845   1.000
    O924    O    0.19602   0.73032   0.26269   1.000
    O925    O    0.19860   0.71675   0.28732   1.000
    N926    N    0.71691   0.50706   0.38801   1.000
    O927    O    0.75249   0.51743   0.37612   1.000
    O928    O    0.75249   0.51743   0.35396   1.000
    O929    O    0.68376   0.49269   0.40071   1.000
    O930    O    0.68376   0.49269   0.42285   1.000
    N931    N    0.22227   0.88792   0.33589   1.000
    O932    O    0.26511   0.87478   0.33216   1.000
    O933    O    0.25714   0.85299   0.34618   1.000
    O934    O    0.18173   0.89733   0.33787   1.000
    O935    O    0.18655   0.92086   0.32312   1.000
    N936    N    0.28621   0.62502   0.04438   1.000
    O937    O    0.29366   0.61138   0.01217   1.000
    O938    O    0.28431   0.63861   0.00311   1.000
    O939    O    0.29367   0.61139   0.08278   1.000
    O940    O    0.28431   0.63861   0.07396   1.000
    N941    N    0.40984   0.54914   0.96417   1.000
    O942    O    0.36652   0.56695   0.96515   1.000
    O943    O    0.38096   0.58082   0.94155   1.000
    O944    O    0.43904   0.51968   0.98731   1.000
    O945    O    0.45267   0.53325   0.96268   1.000
    N946    N    0.07686   0.54914   0.40984   1.000
    O947    O    0.10138   0.56695   0.36652   1.000
    O948    O    0.09667   0.58082   0.38096   1.000
    O949    O    0.05398   0.51968   0.43904   1.000
    O950    O    0.05140   0.53325   0.45267   1.000
    N951    N    0.95117   0.61557   0.48208   1.000
    O952    O    0.94800   0.65881   0.46732   1.000
    O953    O    0.97710   0.57277   0.49514   1.000
    O954    O    0.92586   0.65881   0.46732   1.000
    O955    O    0.95498   0.57277   0.49514   1.000
    N956    N    0.91411   0.69608   0.36208   1.000
    O957    O    0.91784   0.72205   0.37522   1.000
    O958    O    0.90382   0.70631   0.39701   1.000
    O959    O    0.91213   0.66693   0.35267   1.000
    O960    O    0.92688   0.68053   0.32914   1.000
    N961    N    0.96417   0.54914   0.40984   1.000
    O962    O    0.94155   0.58082   0.38096   1.000
    O963    O    0.98731   0.51968   0.43904   1.000
    O964    O    0.96268   0.53325   0.45267   1.000
    O965    O    0.96515   0.56695   0.36652   1.000
    N966    N    0.28583   0.84016   0.17314   1.000
    O967    O    0.28485   0.88348   0.14862   1.000
    O968    O    0.30845   0.86904   0.15333   1.000
    O969    O    0.26269   0.81096   0.19602   1.000
    O970    O    0.28732   0.79733   0.19860   1.000
    N971    N    0.84016   0.70086   0.17314   1.000
    O972    O    0.88348   0.68305   0.14862   1.000
    O973    O    0.86904   0.66918   0.15333   1.000
    O974    O    0.81096   0.73032   0.19602   1.000
    O975    O    0.79733   0.71675   0.19860   1.000
    N976    N    0.84016   0.28583   0.17314   1.000
    O977    O    0.79733   0.28732   0.19860   1.000
    O978    O    0.86904   0.30845   0.15333   1.000
    O979    O    0.81096   0.26269   0.19602   1.000
    O980    O    0.88348   0.28485   0.14862   1.000
    N981    N    0.70086   0.28583   0.17314   1.000
    O982    O    0.68305   0.28485   0.14862   1.000
    O983    O    0.66918   0.30845   0.15333   1.000
    O984    O    0.73032   0.26269   0.19602   1.000
    O985    O    0.71675   0.28732   0.19860   1.000
    N986    N    0.62497   0.20562   0.20562   1.000
    O987    O    0.63862   0.23783   0.16722   1.000
    O988    O    0.63862   0.16722   0.23783   1.000
    O989    O    0.61139   0.24689   0.17604   1.000
    O990    O    0.61139   0.17604   0.24689   1.000
    N991    N    0.82120   0.93846   0.41913   1.000
    O992    O    0.86396   0.93287   0.40872   1.000
    O993    O    0.79445   0.93287   0.40872   1.000
    O994    O    0.84977   0.94100   0.43040   1.000
    O995    O    0.77883   0.94100   0.43040   1.000
    N996    N    0.29883   0.63443   0.29883   1.000
    O997    O    0.32414   0.59119   0.30200   1.000
    O998    O    0.29502   0.67723   0.27290   1.000
    O999    O    0.30200   0.59119   0.32414   1.000
    O1000   O    0.27290   0.67723   0.29502   1.000
    N1001   N    0.95117   0.48208   0.61557   1.000
    O1002   O    0.94800   0.46732   0.65881   1.000
    O1003   O    0.97710   0.49514   0.57277   1.000
    O1004   O    0.92586   0.46732   0.65881   1.000
    O1005   O    0.95498   0.49514   0.57277   1.000
    N1006   N    0.91411   0.36208   0.69608   1.000
    O1007   O    0.91784   0.37522   0.72205   1.000
    O1008   O    0.92688   0.32914   0.68053   1.000
    O1009   O    0.90382   0.39701   0.70631   1.000
    O1010   O    0.91213   0.35267   0.66693   1.000
    N1011   N    0.86199   0.74294   0.86199   1.000
    O1012   O    0.87388   0.73257   0.89604   1.000
    O1013   O    0.82715   0.75731   0.84929   1.000
    O1014   O    0.89604   0.73257   0.87388   1.000
    O1015   O    0.84929   0.75731   0.82715   1.000
    N1016   N    0.82120   0.82120   0.93846   1.000
    O1017   O    0.84977   0.77883   0.94100   1.000
    O1018   O    0.86396   0.79445   0.93287   1.000
    O1019   O    0.79445   0.86396   0.93287   1.000
    O1020   O    0.77883   0.84977   0.94100   1.000
    N1021   N    0.04438   0.62502   0.04438   1.000
    O1022   O    0.01217   0.61139   0.08278   1.000
    O1023   O    0.00311   0.63861   0.07396   1.000
    O1024   O    0.08278   0.61138   0.01217   1.000
    O1025   O    0.07396   0.63861   0.00311   1.000
    N1026   N    0.96417   0.54914   0.07686   1.000
    O1027   O    0.96515   0.56695   0.10138   1.000
    O1028   O    0.94155   0.58082   0.09667   1.000
    O1029   O    0.98731   0.51968   0.05398   1.000
    O1030   O    0.96268   0.53325   0.05140   1.000
    N1031   N    0.95117   0.61557   0.95117   1.000
    O1032   O    0.92586   0.65881   0.94800   1.000
    O1033   O    0.95498   0.57277   0.97710   1.000
    O1034   O    0.94800   0.65881   0.92586   1.000
    O1035   O    0.97710   0.57277   0.95498   1.000
    N1036   N    0.02773   0.69608   0.91411   1.000
    O1037   O    0.98489   0.72205   0.91784   1.000
    O1038   O    0.06345   0.68053   0.92688   1.000
    O1039   O    0.99286   0.70631   0.90382   1.000
    O1040   O    0.06827   0.66693   0.91213   1.000
    N1041   N    0.84016   0.70086   0.28583   1.000
    O1042   O    0.86904   0.66918   0.30845   1.000
    O1043   O    0.88348   0.68305   0.28485   1.000
    O1044   O    0.79733   0.71675   0.28732   1.000
    O1045   O    0.81096   0.73032   0.26269   1.000
    N1046   N    0.69608   0.36208   0.02773   1.000
    O1047   O    0.70631   0.39701   0.99286   1.000
    O1048   O    0.66693   0.35267   0.06827   1.000
    O1049   O    0.68053   0.32914   0.06345   1.000
    O1050   O    0.72205   0.37522   0.98489   1.000
    N1051   N    0.91411   0.69608   0.02773   1.000
    O1052   O    0.90382   0.70631   0.99286   1.000
    O1053   O    0.91213   0.66693   0.06827   1.000
    O1054   O    0.92688   0.68053   0.06345   1.000
    O1055   O    0.91784   0.72205   0.98489   1.000
    N1056   N    0.91411   0.36208   0.02773   1.000
    O1057   O    0.92688   0.32914   0.06345   1.000
    O1058   O    0.91784   0.37522   0.98489   1.000
    O1059   O    0.90382   0.39701   0.99286   1.000
    O1060   O    0.91213   0.35267   0.06827   1.000
    N1061   N    0.36208   0.91411   0.02773   1.000
    O1062   O    0.32914   0.92688   0.06345   1.000
    O1063   O    0.37522   0.91784   0.98489   1.000
    O1064   O    0.39701   0.90382   0.99286   1.000
    O1065   O    0.35267   0.91213   0.06827   1.000
    N1066   N    0.96417   0.40984   0.07686   1.000
    O1067   O    0.96515   0.36652   0.10138   1.000
    O1068   O    0.94155   0.38096   0.09667   1.000
    O1069   O    0.98731   0.43904   0.05398   1.000
    O1070   O    0.96268   0.45267   0.05140   1.000
    N1071   N    0.40984   0.96417   0.07686   1.000
    O1072   O    0.36652   0.96515   0.10138   1.000
    O1073   O    0.38096   0.94155   0.09667   1.000
    O1074   O    0.43904   0.98731   0.05398   1.000
    O1075   O    0.45267   0.96268   0.05140   1.000
    N1076   N    0.54914   0.96417   0.07686   1.000
    O1077   O    0.56695   0.96515   0.10138   1.000
    O1078   O    0.58082   0.94155   0.09667   1.000
    O1079   O    0.51968   0.98731   0.05398   1.000
    O1080   O    0.53325   0.96268   0.05140   1.000
    N1081   N    0.96379   0.62497   0.20562   1.000
    O1082   O    0.96569   0.61139   0.17604   1.000
    O1083   O    0.95634   0.63861   0.16722   1.000
    O1084   O    0.95633   0.63861   0.23783   1.000
    O1085   O    0.96569   0.61139   0.24689   1.000
    N1086   N    0.38801   0.38801   0.71691   1.000
    O1087   O    0.37612   0.35396   0.75249   1.000
    O1088   O    0.35396   0.37612   0.75249   1.000
    O1089   O    0.40071   0.42285   0.68376   1.000
    O1090   O    0.42285   0.40071   0.68376   1.000
    N1091   N    0.63443   0.29883   0.29883   1.000
    O1092   O    0.59119   0.32414   0.30200   1.000
    O1093   O    0.67723   0.29502   0.27290   1.000
    O1094   O    0.67723   0.27290   0.29502   1.000
    O1095   O    0.59119   0.30200   0.32414   1.000
    N1096   N    0.55392   0.22227   0.33589   1.000
    O1097   O    0.56947   0.18655   0.32312   1.000
    O1098   O    0.58307   0.18173   0.33787   1.000
    O1099   O    0.52795   0.26511   0.33216   1.000
    O1100   O    0.54369   0.25714   0.34618   1.000
    N1101   N    0.50706   0.38801   0.38801   1.000
    O1102   O    0.51743   0.37612   0.35396   1.000
    O1103   O    0.49269   0.42285   0.40071   1.000
    O1104   O    0.49269   0.40071   0.42285   1.000
    O1105   O    0.51743   0.35396   0.37612   1.000
    N1106   N    0.42880   0.42880   0.31154   1.000
    O1107   O    0.47117   0.40023   0.30900   1.000
    O1108   O    0.38604   0.45555   0.31713   1.000
    O1109   O    0.45555   0.38604   0.31713   1.000
    O1110   O    0.40023   0.47117   0.30900   1.000
    N1111   N    0.62502   0.28621   0.04438   1.000
    O1112   O    0.63861   0.28431   0.07396   1.000
    O1113   O    0.63861   0.28431   0.00311   1.000
    O1114   O    0.61139   0.29367   0.08278   1.000
    O1115   O    0.61138   0.29367   0.01217   1.000
    N1116   N    0.28621   0.04438   0.62503   1.000
    O1117   O    0.28431   0.07396   0.63861   1.000
    O1118   O    0.29367   0.08278   0.61139   1.000
    O1119   O    0.29367   0.01217   0.61139   1.000
    O1120   O    0.28431   0.00311   0.63861   1.000
    N1121   N    0.28583   0.17314   0.70086   1.000
    O1122   O    0.28485   0.14862   0.68305   1.000
    O1123   O    0.30845   0.15333   0.66918   1.000
    O1124   O    0.26269   0.19602   0.73032   1.000
    O1125   O    0.28732   0.19860   0.71675   1.000
    N1126   N    0.83087   0.42880   0.31154   1.000
    O1127   O    0.81960   0.47117   0.30900   1.000
    O1128   O    0.81960   0.40023   0.30900   1.000
    O1129   O    0.84128   0.38604   0.31713   1.000
    O1130   O    0.84128   0.45555   0.31713   1.000
    N1131   N    0.76792   0.63443   0.29883   1.000
    O1132   O    0.75486   0.67723   0.29502   1.000
    O1133   O    0.78268   0.59119   0.32414   1.000
    O1134   O    0.78268   0.59119   0.30200   1.000
    O1135   O    0.75486   0.67723   0.27290   1.000
    N1136   N    0.69608   0.02773   0.36208   1.000
    O1137   O    0.70631   0.99286   0.39701   1.000
    O1138   O    0.66693   0.06827   0.35267   1.000
    O1139   O    0.72205   0.98489   0.37522   1.000
    O1140   O    0.68053   0.06345   0.32914   1.000
    N1141   N    0.69608   0.91411   0.36208   1.000
    O1142   O    0.70631   0.90382   0.39701   1.000
    O1143   O    0.66693   0.91213   0.35267   1.000
    O1144   O    0.68053   0.92688   0.32914   1.000
    O1145   O    0.72205   0.91784   0.37522   1.000
    N1146   N    0.02773   0.69608   0.36208   1.000
    O1147   O    0.06345   0.68053   0.32914   1.000
    O1148   O    0.98489   0.72205   0.37522   1.000
    O1149   O    0.99286   0.70631   0.39701   1.000
    O1150   O    0.06827   0.66693   0.35267   1.000
    N1151   N    0.83087   0.42880   0.42880   1.000
    O1152   O    0.84128   0.45555   0.38604   1.000
    O1153   O    0.81960   0.47117   0.40023   1.000
    O1154   O    0.84128   0.38604   0.45555   1.000
    O1155   O    0.81960   0.40023   0.47117   1.000
    N1156   N    0.42880   0.31154   0.83087   1.000
    O1157   O    0.38604   0.31713   0.84128   1.000
    O1158   O    0.47117   0.30900   0.81960   1.000
    O1159   O    0.40023   0.30900   0.81960   1.000
    O1160   O    0.45555   0.31713   0.84128   1.000
    N1161   N    0.28620   0.04438   0.04438   1.000
    O1162   O    0.28431   0.07396   0.00311   1.000
    O1163   O    0.29367   0.01217   0.08278   1.000
    O1164   O    0.28431   0.00311   0.07396   1.000
    O1165   O    0.29367   0.08278   0.01217   1.000
    N1166   N    0.48208   0.95117   0.61557   1.000
    O1167   O    0.46732   0.94800   0.65881   1.000
    O1168   O    0.49514   0.97710   0.57277   1.000
    O1169   O    0.46732   0.92586   0.65881   1.000
    O1170   O    0.49514   0.95498   0.57277   1.000
    N1171   N    0.48208   0.95117   0.95117   1.000
    O1172   O    0.46732   0.92586   0.94800   1.000
    O1173   O    0.49514   0.95498   0.97710   1.000
    O1174   O    0.46732   0.94800   0.92586   1.000
    O1175   O    0.49514   0.97710   0.95498   1.000
    N1176   N    0.53309   0.86199   0.86199   1.000
    O1177   O    0.56624   0.82715   0.84929   1.000
    O1178   O    0.49751   0.87388   0.89604   1.000
    O1179   O    0.49751   0.89604   0.87388   1.000
    O1180   O    0.56624   0.84929   0.82715   1.000
    N1181   N    0.41913   0.82120   0.93846   1.000
    O1182   O    0.43040   0.84977   0.94100   1.000
    O1183   O    0.40872   0.79445   0.93287   1.000
    O1184   O    0.43040   0.77883   0.94100   1.000
    O1185   O    0.40872   0.86396   0.93287   1.000
    N1186   N    0.41913   0.93846   0.82120   1.000
    O1187   O    0.40872   0.93287   0.86396   1.000
    O1188   O    0.43040   0.94100   0.77883   1.000
    O1189   O    0.40872   0.93287   0.79445   1.000
    O1190   O    0.43040   0.94100   0.84977   1.000
    N1191   N    0.69227   0.69227   0.80773   1.000
    O1192   O    0.65895   0.72764   0.79565   1.000
    O1193   O    0.65895   0.72764   0.81777   1.000
    O1194   O    0.72764   0.65895   0.81777   1.000
    O1195   O    0.72764   0.65895   0.79565   1.000
    N1196   N    0.53309   0.74294   0.86199   1.000
    O1197   O    0.49751   0.73257   0.87388   1.000
    O1198   O    0.56624   0.75731   0.82715   1.000
    O1199   O    0.49751   0.73257   0.89604   1.000
    O1200   O    0.56624   0.75731   0.84929   1.000
    N1201   N    0.41913   0.82120   0.82120   1.000
    O1202   O    0.43040   0.77883   0.84977   1.000
    O1203   O    0.40872   0.86396   0.79445   1.000
    O1204   O    0.40872   0.79445   0.86396   1.000
    O1205   O    0.43040   0.84977   0.77883   1.000
    N1206   N    0.07686   0.54914   0.96417   1.000
    O1207   O    0.10138   0.56695   0.96515   1.000
    O1208   O    0.09667   0.58082   0.94155   1.000
    O1209   O    0.05398   0.51968   0.98731   1.000
    O1210   O    0.05140   0.53325   0.96268   1.000
    N1211   N    0.33589   0.22227   0.88792   1.000
    O1212   O    0.33216   0.26511   0.87478   1.000
    O1213   O    0.32312   0.18655   0.92086   1.000
    O1214   O    0.33787   0.18173   0.89733   1.000
    O1215   O    0.34618   0.25714   0.85299   1.000
    N1216   N    0.55773   0.44227   0.55773   1.000
    O1217   O    0.52236   0.45435   0.59105   1.000
    O1218   O    0.59105   0.43223   0.52236   1.000
    O1219   O    0.52236   0.43223   0.59105   1.000
    O1220   O    0.59105   0.45435   0.52236   1.000
    N1221   N    0.04438   0.04438   0.62503   1.000
    O1222   O    0.08278   0.01217   0.61139   1.000
    O1223   O    0.01217   0.08278   0.61139   1.000
    O1224   O    0.00311   0.07396   0.63861   1.000
    O1225   O    0.07396   0.00311   0.63861   1.000
    N1226   N    0.69608   0.36208   0.91411   1.000
    O1227   O    0.72205   0.37522   0.91784   1.000
    O1228   O    0.68053   0.32914   0.92688   1.000
    O1229   O    0.70631   0.39701   0.90382   1.000
    O1230   O    0.66693   0.35267   0.91213   1.000
    N1231   N    0.74293   0.53309   0.86199   1.000
    O1232   O    0.73257   0.49751   0.89604   1.000
    O1233   O    0.75731   0.56624   0.84929   1.000
    O1234   O    0.73257   0.49751   0.87388   1.000
    O1235   O    0.75731   0.56624   0.82715   1.000
    N1236   N    0.82120   0.41913   0.93846   1.000
    O1237   O    0.84977   0.43040   0.94100   1.000
    O1238   O    0.86396   0.40872   0.93287   1.000
    O1239   O    0.77883   0.43040   0.94100   1.000
    O1240   O    0.79445   0.40872   0.93287   1.000
    N1241   N    0.80773   0.69227   0.80773   1.000
    O1242   O    0.79565   0.72764   0.81777   1.000
    O1243   O    0.81777   0.65895   0.79565   1.000
    O1244   O    0.81777   0.72764   0.79565   1.000
    O1245   O    0.79565   0.65895   0.81777   1.000
    N1246   N    0.93846   0.82120   0.82120   1.000
    O1247   O    0.93287   0.79445   0.86396   1.000
    O1248   O    0.94100   0.84977   0.77883   1.000
    O1249   O    0.94100   0.77883   0.84977   1.000
    O1250   O    0.93287   0.86396   0.79445   1.000
    N1251   N    0.36208   0.91411   0.69608   1.000
    O1252   O    0.37522   0.91784   0.72205   1.000
    O1253   O    0.39701   0.90382   0.70631   1.000
    O1254   O    0.35267   0.91213   0.66693   1.000
    O1255   O    0.32914   0.92688   0.68053   1.000
    N1256   N    0.36208   0.02773   0.69608   1.000
    O1257   O    0.39701   0.99286   0.70631   1.000
    O1258   O    0.35267   0.06827   0.66693   1.000
    O1259   O    0.37522   0.98489   0.72205   1.000
    O1260   O    0.32914   0.06345   0.68053   1.000
    N1261   N    0.69227   0.80773   0.69227   1.000
    O1262   O    0.65895   0.81777   0.72764   1.000
    O1263   O    0.72764   0.79565   0.65895   1.000
    O1264   O    0.72764   0.81777   0.65895   1.000
    O1265   O    0.65895   0.79565   0.72764   1.000
    N1266   N    0.53309   0.86199   0.74294   1.000
    O1267   O    0.49751   0.89604   0.73257   1.000
    O1268   O    0.56624   0.84929   0.75731   1.000
    O1269   O    0.49751   0.87388   0.73257   1.000
    O1270   O    0.56624   0.82715   0.75731   1.000
    N1271   N    0.33589   0.55392   0.88792   1.000
    O1272   O    0.32312   0.56947   0.92086   1.000
    O1273   O    0.33216   0.52795   0.87478   1.000
    O1274   O    0.34618   0.54369   0.85299   1.000
    O1275   O    0.33787   0.58307   0.89733   1.000
    N1276   N    0.82120   0.82120   0.41913   1.000
    O1277   O    0.77883   0.84977   0.43040   1.000
    O1278   O    0.86396   0.79445   0.40872   1.000
    O1279   O    0.79445   0.86396   0.40872   1.000
    O1280   O    0.84977   0.77883   0.43040   1.000
    N1281   N    0.04438   0.62502   0.28621   1.000
    O1282   O    0.08278   0.61138   0.29367   1.000
    O1283   O    0.07396   0.63861   0.28431   1.000
    O1284   O    0.01217   0.61138   0.29367   1.000
    O1285   O    0.00311   0.63861   0.28431   1.000
    N1286   N    0.69227   0.80773   0.80773   1.000
    O1287   O    0.72764   0.81777   0.79565   1.000
    O1288   O    0.65895   0.79565   0.81777   1.000
    O1289   O    0.72764   0.79565   0.81777   1.000
    O1290   O    0.65895   0.81777   0.79565   1.000
    N1291   N    0.22227   0.55392   0.88792   1.000
    O1292   O    0.18173   0.58307   0.89733   1.000
    O1293   O    0.25714   0.54369   0.85299   1.000
    O1294   O    0.26511   0.52795   0.87478   1.000
    O1295   O    0.18655   0.56947   0.92086   1.000
    N1296   N    0.70086   0.84016   0.28583   1.000
    O1297   O    0.68305   0.88348   0.28485   1.000
    O1298   O    0.66918   0.86904   0.30845   1.000
    O1299   O    0.73032   0.81096   0.26269   1.000
    O1300   O    0.71675   0.79733   0.28732   1.000
    N1301   N    0.62502   0.04438   0.28621   1.000
    O1302   O    0.61138   0.01217   0.29367   1.000
    O1303   O    0.63861   0.07396   0.28431   1.000
    O1304   O    0.63861   0.00311   0.28431   1.000
    O1305   O    0.61139   0.08278   0.29367   1.000
    N1306   N    0.80773   0.69227   0.69227   1.000
    O1307   O    0.81777   0.65895   0.72764   1.000
    O1308   O    0.79565   0.65895   0.72764   1.000
    O1309   O    0.79565   0.72764   0.65895   1.000
    O1310   O    0.81777   0.72764   0.65895   1.000
    N1311   N    0.07686   0.96417   0.40984   1.000
    O1312   O    0.10138   0.96515   0.36652   1.000
    O1313   O    0.09667   0.94155   0.38096   1.000
    O1314   O    0.05398   0.98731   0.43904   1.000
    O1315   O    0.05140   0.96268   0.45267   1.000
    N1316   N    0.54914   0.96417   0.40984   1.000
    O1317   O    0.56695   0.96515   0.36652   1.000
    O1318   O    0.58082   0.94155   0.38096   1.000
    O1319   O    0.51968   0.98731   0.43904   1.000
    O1320   O    0.53325   0.96268   0.45267   1.000
    N1321   N    0.54914   0.07686   0.40984   1.000
    O1322   O    0.56695   0.10138   0.36652   1.000
    O1323   O    0.58082   0.09667   0.38096   1.000
    O1324   O    0.51968   0.05398   0.43904   1.000
    O1325   O    0.53325   0.05140   0.45267   1.000
    N1326   N    0.88792   0.55392   0.33589   1.000
    O1327   O    0.92086   0.56947   0.32312   1.000
    O1328   O    0.89733   0.58307   0.33787   1.000
    O1329   O    0.87478   0.52795   0.33216   1.000
    O1330   O    0.85299   0.54369   0.34618   1.000
    N1331   N    0.54914   0.40984   0.07686   1.000
    O1332   O    0.56695   0.36652   0.10138   1.000
    O1333   O    0.58082   0.38096   0.09667   1.000
    O1334   O    0.51968   0.43904   0.05398   1.000
    O1335   O    0.53325   0.45267   0.05140   1.000
    N1336   N    0.62502   0.04438   0.04438   1.000
    O1337   O    0.63861   0.00311   0.07396   1.000
    O1338   O    0.63861   0.07396   0.00311   1.000
    O1339   O    0.61138   0.08278   0.01217   1.000
    O1340   O    0.61139   0.01217   0.08278   1.000
    N1341   N    0.55392   0.33589   0.88792   1.000
    O1342   O    0.58307   0.33787   0.89733   1.000
    O1343   O    0.52795   0.33216   0.87478   1.000
    O1344   O    0.54369   0.34618   0.85299   1.000
    O1345   O    0.56947   0.32312   0.92086   1.000
    N1346   N    0.96380   0.20562   0.62497   1.000
    O1347   O    0.96569   0.17604   0.61139   1.000
    O1348   O    0.96569   0.24689   0.61139   1.000
    O1349   O    0.95633   0.16722   0.63862   1.000
    O1350   O    0.95633   0.23783   0.63862   1.000
    N1351   N    0.86199   0.53309   0.86199   1.000
    O1352   O    0.87388   0.49751   0.89604   1.000
    O1353   O    0.82715   0.56624   0.84929   1.000
    O1354   O    0.84929   0.56624   0.82715   1.000
    O1355   O    0.89604   0.49751   0.87388   1.000
    N1356   N    0.95117   0.48208   0.95117   1.000
    O1357   O    0.94800   0.46732   0.92586   1.000
    O1358   O    0.97710   0.49514   0.95498   1.000
    O1359   O    0.92586   0.46732   0.94800   1.000
    O1360   O    0.95498   0.49514   0.97710   1.000
    N1361   N    0.50706   0.38801   0.71691   1.000
    O1362   O    0.51743   0.35396   0.75249   1.000
    O1363   O    0.49269   0.40071   0.68376   1.000
    O1364   O    0.51743   0.37612   0.75249   1.000
    O1365   O    0.49269   0.42285   0.68376   1.000
    N1366   N    0.42880   0.42880   0.83087   1.000
    O1367   O    0.40023   0.47117   0.81960   1.000
    O1368   O    0.45555   0.38604   0.84128   1.000
    O1369   O    0.47117   0.40023   0.81960   1.000
    O1370   O    0.38604   0.45555   0.84128   1.000
    N1371   N    0.40984   0.54914   0.07686   1.000
    O1372   O    0.36652   0.56695   0.10138   1.000
    O1373   O    0.38096   0.58082   0.09667   1.000
    O1374   O    0.43904   0.51968   0.05398   1.000
    O1375   O    0.45267   0.53325   0.05140   1.000
    N1376   N    0.61557   0.95117   0.48208   1.000
    O1377   O    0.65881   0.92586   0.46732   1.000
    O1378   O    0.57277   0.95498   0.49514   1.000
    O1379   O    0.65881   0.94800   0.46732   1.000
    O1380   O    0.57277   0.97710   0.49514   1.000
    N1381   N    0.04438   0.28621   0.04438   1.000
    O1382   O    0.01217   0.29367   0.08278   1.000
    O1383   O    0.07396   0.28431   0.00311   1.000
    O1384   O    0.08278   0.29367   0.01217   1.000
    O1385   O    0.00311   0.28431   0.07396   1.000
    N1386   N    0.29883   0.63443   0.76792   1.000
    O1387   O    0.30200   0.59119   0.78268   1.000
    O1388   O    0.27290   0.67723   0.75486   1.000
    O1389   O    0.32414   0.59119   0.78268   1.000
    O1390   O    0.29502   0.67723   0.75486   1.000
    N1391   N    0.28583   0.70086   0.84016   1.000
    O1392   O    0.28485   0.68305   0.88348   1.000
    O1393   O    0.30845   0.66918   0.86904   1.000
    O1394   O    0.26269   0.73032   0.81096   1.000
    O1395   O    0.28732   0.71675   0.79733   1.000
    N1396   N    0.86199   0.53309   0.74294   1.000
    O1397   O    0.89604   0.49751   0.73257   1.000
    O1398   O    0.84929   0.56624   0.75731   1.000
    O1399   O    0.87388   0.49751   0.73257   1.000
    O1400   O    0.82715   0.56624   0.75731   1.000
    N1401   N    0.84016   0.17314   0.70086   1.000
    O1402   O    0.86904   0.15333   0.66918   1.000
    O1403   O    0.81096   0.19602   0.73032   1.000
    O1404   O    0.79733   0.19860   0.71675   1.000
    O1405   O    0.88348   0.14862   0.68305   1.000
    N1406   N    0.76792   0.29883   0.63443   1.000
    O1407   O    0.78268   0.30200   0.59119   1.000
    O1408   O    0.75486   0.27290   0.67723   1.000
    O1409   O    0.78268   0.32414   0.59119   1.000
    O1410   O    0.75486   0.29502   0.67723   1.000
    N1411   N    0.93846   0.41913   0.82120   1.000
    O1412   O    0.93287   0.40872   0.86396   1.000
    O1413   O    0.94100   0.43040   0.77883   1.000
    O1414   O    0.94100   0.43040   0.84977   1.000
    O1415   O    0.93287   0.40872   0.79445   1.000
    N1416   N    0.82120   0.41913   0.82120   1.000
    O1417   O    0.86396   0.40872   0.79445   1.000
    O1418   O    0.84977   0.43040   0.77883   1.000
    O1419   O    0.79445   0.40872   0.86396   1.000
    O1420   O    0.77883   0.43040   0.84977   1.000
    N1421   N    0.84016   0.28583   0.70086   1.000
    O1422   O    0.79733   0.28732   0.71675   1.000
    O1423   O    0.88348   0.28485   0.68305   1.000
    O1424   O    0.86904   0.30845   0.66918   1.000
    O1425   O    0.81096   0.26269   0.73032   1.000
    N1426   N    0.74293   0.86199   0.86199   1.000
    O1427   O    0.73257   0.89604   0.87388   1.000
    O1428   O    0.75731   0.84929   0.82715   1.000
    O1429   O    0.73257   0.87388   0.89604   1.000
    O1430   O    0.75731   0.82715   0.84929   1.000
    N1431   N    0.17314   0.28583   0.84016   1.000
    O1432   O    0.14862   0.28485   0.88348   1.000
    O1433   O    0.15333   0.30845   0.86904   1.000
    O1434   O    0.19602   0.26269   0.81096   1.000
    O1435   O    0.19860   0.28732   0.79733   1.000
    N1436   N    0.70086   0.17314   0.84016   1.000
    O1437   O    0.68305   0.14862   0.88348   1.000
    O1438   O    0.66918   0.15333   0.86904   1.000
    O1439   O    0.73032   0.19602   0.81096   1.000
    O1440   O    0.71675   0.19860   0.79733   1.000
    N1441   N    0.63443   0.29883   0.76792   1.000
    O1442   O    0.59119   0.30200   0.78268   1.000
    O1443   O    0.67723   0.27290   0.75486   1.000
    O1444   O    0.59119   0.32414   0.78268   1.000
    O1445   O    0.67723   0.29502   0.75486   1.000
    N1446   N    0.55392   0.22227   0.88792   1.000
    O1447   O    0.54369   0.25714   0.85299   1.000
    O1448   O    0.52795   0.26511   0.87478   1.000
    O1449   O    0.58307   0.18173   0.89733   1.000
    O1450   O    0.56947   0.18655   0.92086   1.000
    N1451   N    0.40984   0.07686   0.96417   1.000
    O1452   O    0.38096   0.09667   0.94155   1.000
    O1453   O    0.43904   0.05398   0.98731   1.000
    O1454   O    0.45267   0.05140   0.96268   1.000
    O1455   O    0.36652   0.10138   0.96515   1.000
    N1456   N    0.07686   0.40984   0.96417   1.000
    O1457   O    0.10138   0.36652   0.96515   1.000
    O1458   O    0.09667   0.38096   0.94155   1.000
    O1459   O    0.05398   0.43904   0.98731   1.000
    O1460   O    0.05140   0.45267   0.96268   1.000
    N1461   N    0.61557   0.95117   0.95117   1.000
    O1462   O    0.65881   0.94800   0.92586   1.000
    O1463   O    0.57277   0.97710   0.95498   1.000
    O1464   O    0.65881   0.92586   0.94800   1.000
    O1465   O    0.57277   0.95498   0.97710   1.000
    N1466   N    0.70086   0.28583   0.84016   1.000
    O1467   O    0.73032   0.26269   0.81096   1.000
    O1468   O    0.71675   0.28732   0.79733   1.000
    O1469   O    0.68305   0.28485   0.88348   1.000
    O1470   O    0.66918   0.30845   0.86904   1.000
    N1471   N    0.82120   0.93846   0.82120   1.000
    O1472   O    0.86396   0.93287   0.79445   1.000
    O1473   O    0.77883   0.94100   0.84977   1.000
    O1474   O    0.79445   0.93287   0.86396   1.000
    O1475   O    0.84977   0.94100   0.77883   1.000
    N1476   N    0.54914   0.07686   0.96417   1.000
    O1477   O    0.56695   0.10138   0.96515   1.000
    O1478   O    0.58082   0.09667   0.94155   1.000
    O1479   O    0.51968   0.05398   0.98731   1.000
    O1480   O    0.53325   0.05140   0.96268   1.000
    N1481   N    0.02773   0.36208   0.91411   1.000
    O1482   O    0.06345   0.32914   0.92688   1.000
    O1483   O    0.98489   0.37522   0.91784   1.000
    O1484   O    0.99286   0.39701   0.90382   1.000
    O1485   O    0.06827   0.35267   0.91213   1.000
    N1486   N    0.69608   0.02773   0.91411   1.000
    O1487   O    0.68053   0.06345   0.92688   1.000
    O1488   O    0.72205   0.98489   0.91784   1.000
    O1489   O    0.70631   0.99286   0.90382   1.000
    O1490   O    0.66693   0.06827   0.91213   1.000
    N1491   N    0.86199   0.86199   0.74294   1.000
    O1492   O    0.89604   0.87388   0.73257   1.000
    O1493   O    0.84929   0.82715   0.75731   1.000
    O1494   O    0.87388   0.89604   0.73257   1.000
    O1495   O    0.82715   0.84929   0.75731   1.000
loop_
    _geom_bond_atom_site_label_1
    _geom_bond_atom_site_label_2
    _geom_bond_distance
    _geom_bond_site_symmetry_2
    _ccdc_geom_bond_type
    Zr215  O272      0.96312      .   S
    Zr191  O272      0.96312  1_556   S
    Zr211  O273      0.96312      .   S
    Zr187  O273      0.96312  1_556   S
    Zr207  O274      0.96312      .   S
    Zr183  O274      0.96312  1_556   S
    Zr94   O275      0.96649      .   S
    Zr149  O275      0.96649      .   S
    Zr154  O276      0.96051      .   S
    Zr155  O276      0.96051      .   S
    Zr124  O277      0.96051      .   S
    Zr125  O277      0.96051      .   S
    Zr125  O278      0.96649      .   S
    Zr46   O278      0.96649      .   S
    Zr130  O279      0.96051      .   S
    Zr131  O279      0.96051      .   S
    Zr155  O280      0.96649      .   S
    Zr58   O280      0.96649      .   S
    Zr149  O281      0.96051      .   S
    Zr148  O281      0.96051      .   S
    Zr160  O282      0.96051      .   S
    Zr161  O282      0.96051      .   S
    Zr161  O283      0.96649      .   S
    Zr64   O283      0.96649      .   S
    Zr137  O284      0.96051      .   S
    Zr136  O284      0.96051      .   S
    Zr137  O285      0.96649      .   S
    Zr30   O285      0.96649      .   S
    Zr131  O286      0.96649      .   S
    Zr38   O286      0.96649      .   S
    Zr200  O287      0.96312      .   S
    Zr177  O287      0.96312      .   S
    Zr194  O288      0.96312      .   S
    Zr171  O288      0.96312      .   S
    Zr197  O289      0.96312      .   S
    Zr173  O289      0.96312      .   S
    Zr173  O290      0.96312      .   S
    Zr196  O290      0.96312      .   S
    Zr171  O291      0.96312      .   S
    Zr195  O291      0.96312      .   S
    Zr177  O292      0.96312      .   S
    Zr201  O292      0.96312      .   S
    Zr6    O293      0.96649      .   S
    Zr127  O293      0.96649      .   S
    Zr84   O294      0.96649      .   S
    Zr157  O294      0.96649      .   S
    Zr8    O295      0.96649      .   S
    Zr129  O295      0.96649      .   S
    Zr50   O296      0.96649      .   S
    Zr147  O296      0.96649      .   S
    Zr70   O297      0.96649      .   S
    Zr167  O297      0.96649      .   S
    Zr24   O298      0.96649      .   S
    Zr139  O298      0.96649      .   S
    Zr95   O299      0.96297      .   S
    Zr225  O299      0.96297      .   S
    Zr17   O300      0.96297      .   S
    Zr233  O300      0.96297      .   S
    Zr5    O301      0.96249      .   S
    Zr221  O301      0.96249      .   S
    Zr87   O302      0.96266      .   S
    Zr235  O302      0.96266      .   S
    Zr11   O303      0.96266      .   S
    Zr227  O303      0.96266      .   S
    Zr79   O304      0.96249      .   S
    Zr223  O304      0.96249      .   S
    Zr129  O305      0.96051      .   S
    Zr128  O305      0.96051      .   S
    Zr139  O306      0.96051      .   S
    Zr138  O306      0.96051      .   S
    Zr157  O307      0.96051      .   S
    Zr156  O307      0.96051      .   S
    Zr167  O308      0.96051      .   S
    Zr166  O308      0.96051      .   S
    Zr147  O309      0.96051      .   S
    Zr146  O309      0.96051      .   S
    Zr127  O310      0.96051      .   S
    Zr126  O310      0.96051      .   S
    Zr227  O311      0.96266      .   S
    Zr93   O311      0.96266      .   S
    Zr235  O312      0.96266      .   S
    Zr19   O312      0.96266      .   S
    Zr221  O313      0.96303      .   S
    Zr77   O313      0.96303      .   S
    Zr233  O314      0.96297      .   S
    Zr85   O314      0.96297      .   S
    Zr223  O315      0.96303      .   S
    Zr7    O315      0.96303      .   S
    Zr225  O316      0.96297      .   S
    Zr9    O316      0.96297      .   S
    Zr98   O317      0.96244      .   S
    Zr266  O317      0.96244      .   S
    Zr104  O318      0.96235      .   S
    Zr264  O318      0.96235      .   S
    Zr257  O319      0.96303      .   S
    Zr41   O319      0.96303      .   S
    Zr257  O320      0.96249      .   S
    Zr61   O320      0.96249      .   S
    Zr241  O321      0.96266      .   S
    Zr51   O321      0.96266      .   S
    Zr241  O322      0.96266      .   S
    Zr25   O322      0.96266      .   S
    Zr249  O323      0.96303      .   S
    Zr71   O323      0.96303      .   S
    Zr249  O324      0.96249      .   S
    Zr33   O324      0.96249      .   S
    Zr267  O325      0.96217      .   S
    Zr99   O325      0.96217      .   S
    Zr267  O326      0.96244      .   S
    Zr106  O326      0.96244      .   S
    Zr266  O327      0.96217      .   S
    Zr103  O327      0.96217      .   S
    Zr264  O328      0.96235      .   S
    Zr100  O328      0.96235      .   S
    Zr185  O329      0.96312      .   S
    Zr209  O329      0.96312      .   S
    Zr185  O330      0.96312  1_565   S
    Zr208  O330      0.96312      .   S
    Zr189  O331      0.96312      .   S
    Zr212  O331      0.96312      .   S
    Zr189  O332      0.96312  1_655   S
    Zr213  O332      0.96312      .   S
    Zr181  O333      0.96312  1_565   S
    Zr205  O333      0.96312      .   S
    Zr181  O334      0.96312  1_655   S
    Zr204  O334      0.96312      .   S
    Zr217  O335      0.96297      .   S
    Zr1    O335      0.96297      .   S
    Zr217  O336      0.96297      .   S
    Zr75   O336      0.96297      .   S
    Zr237  O337      0.96303      .   S
    Zr83   O337      0.96303      .   S
    Zr237  O338      0.96249      .   S
    Zr21   O338      0.96249      .   S
    Zr231  O339      0.96249      .   S
    Zr91   O339      0.96249      .   S
    Zr231  O340      0.96303      .   S
    Zr15   O340      0.96303      .   S
    Zr68   O341      0.96649      .   S
    Zr165  O341      0.96649      .   S
    Zr42   O342      0.96649      .   S
    Zr121  O342      0.96649      .   S
    Zr268  O343      0.96244      .   S
    Zr112  O343      0.96244      .   S
    Zr268  O344      0.96217      .   S
    Zr116  O344      0.96217      .   S
    Zr164  O345      0.96051      .   S
    Zr165  O345      0.96051      .   S
    Zr144  O346      0.96051      .   S
    Zr145  O346      0.96051      .   S
    Zr159  O347      0.96051      .   S
    Zr158  O347      0.96051      .   S
    Zr159  O348      0.96649      .   S
    Zr82   O348      0.96649      .   S
    Zr145  O349      0.96649      .   S
    Zr90   O349      0.96649      .   S
    Zr120  O350      0.96051      .   S
    Zr121  O350      0.96051      .   S
    Zr134  O351      0.96051      .   S
    Zr135  O351      0.96051      .   S
    Zr135  O352      0.96649      .   S
    Zr14   O352      0.96649      .   S
    Zr141  O353      0.96051      .   S
    Zr140  O353      0.96051      .   S
    Zr141  O354      0.96649      .   S
    Zr20   O354      0.96649      .   S
    Zr107  O355      0.96217      .   S
    Zr265  O355      0.96217      .   S
    Zr97   O356      0.96244      .   S
    Zr265  O356      0.96244      .   S
    Zr69   O357      0.96249      .   S
    Zr251  O357      0.96249      .   S
    Zr63   O358      0.96303      .   S
    Zr259  O358      0.96303      .   S
    Zr43   O359      0.96249      .   S
    Zr259  O359      0.96249      .   S
    Zr35   O360      0.96303      .   S
    Zr251  O360      0.96303      .   S
    Zr49   O361      0.96297      .   S
    Zr243  O361      0.96297      .   S
    Zr27   O362      0.96297      .   S
    Zr243  O362      0.96297      .   S
    Zr202  O363      0.96312      .   S
    Zr179  O363      0.96312      .   S
    Zr193  O364      0.96312      .   S
    Zr169  O364      0.96312      .   S
    Zr203  O365      0.96312      .   S
    Zr179  O365      0.96312      .   S
    Zr198  O366      0.96312      .   S
    Zr175  O366      0.96312      .   S
    Zr192  O367      0.96312      .   S
    Zr169  O367      0.96312      .   S
    Zr199  O368      0.96312      .   S
    Zr175  O368      0.96312      .   S
    Zr109  O369      0.96235      .   S
    Zr269  O369      0.96235      .   S
    Zr110  O370      0.96217      .   S
    Zr270  O370      0.96217      .   S
    Zr113  O371      0.96217      .   S
    Zr271  O371      0.96217      .   S
    Zr117  O372      0.96244      .   S
    Zr270  O372      0.96244      .   S
    Zr271  O373      0.96244      .   S
    Zr111  O373      0.96244      .   S
    Zr269  O374      0.96235      .   S
    Zr119  O374      0.96235      .   S
    Zr23   O375      0.96303      .   S
    Zr239  O375      0.96303      .   S
    Zr73   O376      0.96266      .   S
    Zr219  O376      0.96266      .   S
    Zr81   O377      0.96249      .   S
    Zr239  O377      0.96249      .   S
    Zr89   O378      0.96303      .   S
    Zr229  O378      0.96303      .   S
    Zr13   O379      0.96249      .   S
    Zr229  O379      0.96249      .   S
    Zr3    O380      0.96266      .   S
    Zr219  O380      0.96266      .   S
    Zr37   O381      0.96297      .   S
    Zr253  O381      0.96297      .   S
    Zr57   O382      0.96297      .   S
    Zr263  O382      0.96297      .   S
    Zr55   O383      0.96303      .   S
    Zr247  O383      0.96303      .   S
    Zr45   O384      0.96266      .   S
    Zr261  O384      0.96266      .   S
    Zr29   O385      0.96303      .   S
    Zr245  O385      0.96303      .   S
    Zr67   O386      0.96266      .   S
    Zr255  O386      0.96266      .   S
    Zr152  O387      0.96051      .   S
    Zr153  O387      0.96051      .   S
    Zr122  O388      0.96051      .   S
    Zr123  O388      0.96051      .   S
    Zr132  O389      0.96051      .   S
    Zr133  O389      0.96051      .   S
    Zr142  O390      0.96051      .   S
    Zr143  O390      0.96051      .   S
    Zr162  O391      0.96051      .   S
    Zr163  O391      0.96051      .   S
    Zr150  O392      0.96051      .   S
    Zr151  O392      0.96051      .   S
    Zr247  O393      0.96249      .   S
    Zr31   O393      0.96249      .   S
    Zr245  O394      0.96249      .   S
    Zr53   O394      0.96249      .   S
    Zr263  O395      0.96297      .   S
    Zr47   O395      0.96297      .   S
    Zr255  O396      0.96266      .   S
    Zr39   O396      0.96266      .   S
    Zr261  O397      0.96266      .   S
    Zr59   O397      0.96266      .   S
    Zr253  O398      0.96297      .   S
    Zr65   O398      0.96297      .   S
    Zr133  O399      0.96649      .   S
    Zr12   O399      0.96649      .   S
    Zr163  O400      0.96649      .   S
    Zr66   O400      0.96649      .   S
    Zr153  O401      0.96649      .   S
    Zr80   O401      0.96649      .   S
    Zr151  O402      0.96649      .   S
    Zr88   O402      0.96649      .   S
    Zr143  O403      0.96649      .   S
    Zr22   O403      0.96649      .   S
    Zr123  O404      0.96649      .   S
    Zr44   O404      0.96649      .   S
    Zr214  O405      0.96312      .   S
    Zr191  O405      0.96312  1_565   S
    Zr210  O406      0.96312      .   S
    Zr187  O406      0.96312  1_655   S
    Zr206  O407      0.96312      .   S
    Zr183  O407      0.96312      .   S
    Zr121  O408      0.96649      .   S
    Zr0    O408      0.96649      .   S
    Zr123  O409      0.96649      .   S
    Zr2    O409      0.96649      .   S
    Zr125  O410      0.96649      .   S
    Zr4    O410      0.96649      .   S
    Zr127  O411      0.96649      .   S
    Zr40   O411      0.96649      .   S
    Zr129  O412      0.96649      .   S
    Zr32   O412      0.96649      .   S
    Zr131  O413      0.96649      .   S
    Zr10   O413      0.96649      .   S
    Zr133  O414      0.96649      .   S
    Zr36   O414      0.96649      .   S
    Zr135  O415      0.96649      .   S
    Zr34   O415      0.96649      .   S
    Zr137  O416      0.96649      .   S
    Zr16   O416      0.96649      .   S
    Zr139  O417      0.96649      .   S
    Zr18   O417      0.96649      .   S
    Zr141  O418      0.96649      .   S
    Zr26   O418      0.96649      .   S
    Zr143  O419      0.96649      .   S
    Zr28   O419      0.96649      .   S
    Zr145  O420      0.96649      .   S
    Zr48   O420      0.96649      .   S
    Zr147  O421      0.96649      .   S
    Zr92   O421      0.96649      .   S
    Zr149  O422      0.96649      .   S
    Zr52   O422      0.96649      .   S
    Zr151  O423      0.96649      .   S
    Zr54   O423      0.96649      .   S
    Zr153  O424      0.96649      .   S
    Zr56   O424      0.96649      .   S
    Zr155  O425      0.96649      .   S
    Zr86   O425      0.96649      .   S
    Zr157  O426      0.96649      .   S
    Zr60   O426      0.96649      .   S
    Zr159  O427      0.96649      .   S
    Zr62   O427      0.96649      .   S
    Zr161  O428      0.96649      .   S
    Zr78   O428      0.96649      .   S
    Zr163  O429      0.96649      .   S
    Zr72   O429      0.96649      .   S
    Zr165  O430      0.96649      .   S
    Zr74   O430      0.96649      .   S
    Zr167  O431      0.96649      .   S
    Zr76   O431      0.96649      .   S
    Zr169  O432      0.96601      .   S
    Zr168  O432      0.96601      .   S
    Zr171  O433      0.96601      .   S
    Zr170  O433      0.96601      .   S
    Zr173  O434      0.96601      .   S
    Zr172  O434      0.96601      .   S
    Zr175  O435      0.96601      .   S
    Zr174  O435      0.96601      .   S
    Zr177  O436      0.96601      .   S
    Zr176  O436      0.96601      .   S
    Zr179  O437      0.96601      .   S
    Zr178  O437      0.96601      .   S
    Zr181  O438      0.96601  1_665   S
    Zr180  O438      0.96601      .   S
    Zr183  O439      0.96601  1_556   S
    Zr182  O439      0.96601      .   S
    Zr185  O440      0.96601  1_565   S
    Zr184  O440      0.96601      .   S
    Zr187  O441      0.96601  1_656   S
    Zr186  O441      0.96601      .   S
    Zr189  O442      0.96601  1_655   S
    Zr188  O442      0.96601      .   S
    Zr191  O443      0.96601  1_566   S
    Zr190  O443      0.96601      .   S
    Zr217  O444      0.96456      .   S
    Zr216  O444      0.96456      .   S
    Zr219  O445      0.96456      .   S
    Zr218  O445      0.96456      .   S
    Zr221  O446      0.96456      .   S
    Zr220  O446      0.96456      .   S
    Zr223  O447      0.96456      .   S
    Zr222  O447      0.96456      .   S
    Zr225  O448      0.96456      .   S
    Zr224  O448      0.96456      .   S
    Zr227  O449      0.96456      .   S
    Zr226  O449      0.96456      .   S
    Zr229  O450      0.96456      .   S
    Zr228  O450      0.96456      .   S
    Zr231  O451      0.96456      .   S
    Zr230  O451      0.96456      .   S
    Zr233  O452      0.96456      .   S
    Zr232  O452      0.96456      .   S
    Zr235  O453      0.96456      .   S
    Zr234  O453      0.96456      .   S
    Zr237  O454      0.96456      .   S
    Zr236  O454      0.96456      .   S
    Zr239  O455      0.96456      .   S
    Zr238  O455      0.96456      .   S
    Zr241  O456      0.96456      .   S
    Zr240  O456      0.96456      .   S
    Zr243  O457      0.96456      .   S
    Zr242  O457      0.96456      .   S
    Zr245  O458      0.96456      .   S
    Zr244  O458      0.96456      .   S
    Zr247  O459      0.96456      .   S
    Zr246  O459      0.96456      .   S
    Zr249  O460      0.96456      .   S
    Zr248  O460      0.96456      .   S
    Zr251  O461      0.96456      .   S
    Zr250  O461      0.96456      .   S
    Zr253  O462      0.96456      .   S
    Zr252  O462      0.96456      .   S
    Zr255  O463      0.96456      .   S
    Zr254  O463      0.96456      .   S
    Zr257  O464      0.96456      .   S
    Zr256  O464      0.96456      .   S
    Zr259  O465      0.96456      .   S
    Zr258  O465      0.96456      .   S
    Zr261  O466      0.96456      .   S
    Zr260  O466      0.96456      .   S
    Zr263  O467      0.96456      .   S
    Zr262  O467      0.96456      .   S
    Zr264  O468      0.96235      .   S
    Zr96   O468      0.96235      .   S
    Zr265  O469      0.96244      .   S
    Zr102  O469      0.96244      .   S
    Zr266  O470      0.96244      .   S
    Zr105  O470      0.96244      .   S
    Zr267  O471      0.96244      .   S
    Zr101  O471      0.96244      .   S
    Zr268  O472      0.96244      .   S
    Zr108  O472      0.96244      .   S
    Zr269  O473      0.96235      .   S
    Zr114  O473      0.96235      .   S
    Zr270  O474      0.96244      .   S
    Zr115  O474      0.96244      .   S
    Zr271  O475      0.96244      .   S
    Zr118  O475      0.96244      .   S
    N476   O477      2.33188      .   S
    Zr2    O477      3.27587      .   S
    N476   O478      2.33188      .   S
    Zr72   O478      3.27587      .   S
    N476   O479      2.33706      .   S
    Zr66   O479      3.28134      .   S
    N476   O480      2.33706      .   S
    Zr44   O480      3.28134      .   S
    N481   O482      2.30416      .   S
    Zr197  O482      3.24798      .   S
    N481   O483      2.32540      .   S
    Zr93   O483      3.27034      .   S
    N481   O484      2.30416      .   S
    Zr196  O484      3.24798      .   S
    N481   O485      2.32540      .   S
    Zr11   O485      3.27034      .   S
    N486   O487      2.30731      .   S
    Zr226  O487      3.23920      .   S
    N486   O488      2.28599      .   S
    Zr93   O488      3.22048      .   S
    N486   O489      2.25944      .   S
    Zr146  O489      3.18214      .   S
    N486   O490      2.33682      .   S
    Zr50   O490      3.28120      .   S
    N491   O492      2.30731      .   S
    Zr222  O492      3.23937      .   S
    N491   O493      2.33682      .   S
    Zr64   O493      3.28120      .   S
    N491   O494      2.28599      .   S
    Zr79   O494      3.22032      .   S
    N491   O495      2.25950      .   S
    Zr160  O495      3.18208      .   S
    N496   O497      2.33682      .   S
    Zr2    O497      3.28120      .   S
    N496   O498      2.28599  1_545   S
    Zr45   O498      3.22048      .   S
    N496   O499      2.25944      .   S
    Zr122  O499      3.18214      .   S
    N496   O500      2.30731  1_545   S
    Zr260  O500      3.23920      .   S
    N501   O502      2.32655      .   S
    Zr146  O502      3.27022      .   S
    N501   O503      2.34265      .   S
    Zr172  O503      3.28780      .   S
    N501   O504      2.32481      .   S
    Zr196  O504      3.26560      .   S
    N501   O505      2.34963      .   S
    Zr92   O505      3.30028      .   S
    N506   O507      2.30731      .   S
    Zr226  O507      3.23920      .   S
    N506   O508      2.28599      .   S
    Zr11   O508      3.22048      .   S
    N506   O509      2.33682      .   S
    Zr38   O509      3.28120      .   S
    N506   O510      2.25944      .   S
    Zr130  O510      3.18214      .   S
    N511   O512      2.33682      .   S
    Zr92   O512      3.28120      .   S
    N511   O513      2.28599  1_545   S
    Zr51   O513      3.22048      .   S
    N511   O514      2.25944      .   S
    Zr146  O514      3.18214      .   S
    N511   O515      2.30731  1_545   S
    Zr240  O515      3.23920      .   S
    N516   O517      2.26920      .   S
    Zr101  O517      3.20292      .   S
    N516   O518      2.26913      .   S
    Zr104  O518      3.20284      .   S
    N516   O519      2.26913      .   S
    Zr100  O519      3.20284      .   S
    N516   O520      2.26920      .   S
    Zr106  O520      3.20292      .   S
    N521   O522      2.29767      .   S
    Zr11   O522      3.23053      .   S
    N521   O523      2.30064      .   S
    Zr101  O523      3.23555      .   S
    N521   O524      2.29767      .   S
    Zr93   O524      3.23053      .   S
    N521   O525      2.30064      .   S
    Zr106  O525      3.23555      .   S
    N526   O527      2.30196      .   S
    Zr226  O527      3.23749      .   S
    N526   O528      2.32774      .   S
    Zr93   O528      3.26982      .   S
    N526   O529      2.32789      .   S
    Zr21   O529      3.27027      .   S
    N526   O530      2.30181      .   S
    Zr236  O530      3.23705      .   S
    N531   O532      2.33188      .   S
    Zr10   O532      3.27587      .   S
    N531   O533      2.33706      .   S
    Zr38   O533      3.28134      .   S
    N531   O534      2.33706      .   S
    Zr50   O534      3.28134      .   S
    N531   O535      2.33188      .   S
    Zr92   O535      3.27587      .   S
    N536   O537      2.34265      .   S
    Zr168  O537      3.28780      .   S
    N536   O538      2.32481      .   S
    Zr193  O538      3.26560      .   S
    N536   O539      2.32655      .   S
    Zr122  O539      3.27022      .   S
    N536   O540      2.34963      .   S
    Zr2    O540      3.30028      .   S
    N541   O542      2.30731      .   S
    Zr216  O542      3.23930      .   S
    N541   O543      2.33682      .   S
    Zr68   O543      3.28120      .   S
    N541   O544      2.28599      .   S
    Zr75   O544      3.22071      .   S
    N541   O545      2.25949      .   S
    Zr164  O545      3.18210      .   S
    N546   O547      2.30416      .   S
    Zr192  O547      3.24798      .   S
    N546   O548      2.32516      .   S
    Zr1    O548      3.27009      .   S
    N546   O549      2.32516      .   S
    Zr75   O549      3.27009      .   S
    N546   O550      2.30416      .   S
    Zr193  O550      3.24798      .   S
    N551   O552      2.32462      .   S
    Zr192  O552      3.26566      .   S
    N551   O553      2.34259      .   S
    Zr168  O553      3.28774      .   S
    N551   O554      2.32649      .   S
    Zr120  O554      3.27041      .   S
    N551   O555      2.34970      .   S
    Zr0    O555      3.30035      .   S
    N556   O557      2.30063      .   S
    Zr96   O557      3.23554      .   S
    N556   O558      2.29763      .   S
    Zr1    O558      3.23037      .   S
    N556   O559      2.29763      .   S
    Zr75   O559      3.23037      .   S
    N556   O560      2.30063      .   S
    Zr100  O560      3.23554      .   S
    N561   O562      2.26913      .   S
    Zr96   O562      3.20284      .   S
    N561   O563      2.26920      .   S
    Zr97   O563      3.20292      .   S
    N561   O564      2.26913      .   S
    Zr100  O564      3.20284      .   S
    N561   O565      2.26920      .   S
    Zr102  O565      3.20292      .   S
    N566   O567      2.33187      .   S
    Zr0    O567      3.27586      .   S
    N566   O568      2.33187      .   S
    Zr74   O568      3.27586      .   S
    N566   O569      2.33704      .   S
    Zr68   O569      3.28138      .   S
    N566   O570      2.33704      .   S
    Zr42   O570      3.28138      .   S
    N571   O572      2.32786      .   S
    Zr1    O572      3.27016      .   S
    N571   O573      2.30193      .   S
    Zr216  O573      3.23739      .   S
    N571   O574      2.32786      .   S
    Zr85   O574      3.27016      .   S
    N571   O575      2.30193      .   S
    Zr232  O575      3.23739      .   S
    N576   O577      2.25949      .   S
    Zr120  O577      3.18210      .   S
    N576   O578      2.28599      .   S
    Zr1    O578      3.22071      .   S
    N576   O579      2.30731      .   S
    Zr216  O579      3.23930      .   S
    N576   O580      2.33682      .   S
    Zr42   O580      3.28120      .   S
    N581   O582      2.33682      .   S
    Zr0    O582      3.28120      .   S
    N581   O583      2.28599  1_455   S
    Zr43   O583      3.22032      .   S
    N581   O584      2.25950      .   S
    Zr120  O584      3.18208      .   S
    N581   O585      2.30731  1_455   S
    Zr258  O585      3.23937      .   S
    N586   O587      2.33698      .   S
    Zr0    O587      3.28149      .   S
    N586   O588      2.33189      .   S
    Zr42   O588      3.27588      .   S
    N586   O589      2.33186      .   S
    Zr62   O589      3.27584  1_655   S
    N586   O590      2.33709      .   S
    Zr82   O590      3.28130  1_655   S
    N591   O592      2.30193      .   S
    Zr216  O592      3.23739      .   S
    N591   O593      2.30193      .   S
    Zr224  O593      3.23739      .   S
    N591   O594      2.32786      .   S
    Zr75   O594      3.27016      .   S
    N591   O595      2.32786      .   S
    Zr9    O595      3.27016      .   S
    N596   O597      2.28599      .   S
    Zr73   O597      3.22048      .   S
    N596   O598      2.25944      .   S
    Zr162  O598      3.18214      .   S
    N596   O599      2.33682      .   S
    Zr66   O599      3.28120      .   S
    N596   O600      2.30731      .   S
    Zr218  O600      3.23920      .   S
    N601   O602      2.30416      .   S
    Zr193  O602      3.24798      .   S
    N601   O603      2.32540      .   S
    Zr73   O603      3.27034      .   S
    N601   O604      2.30416      .   S
    Zr192  O604      3.24798      .   S
    N601   O605      2.32540      .   S
    Zr3    O605      3.27034      .   S
    N606   O607      2.30196      .   S
    Zr234  O607      3.23749      .   S
    N606   O608      2.32774      .   S
    Zr87   O608      3.26982      .   S
    N606   O609      2.30181      .   S
    Zr220  O609      3.23705      .   S
    N606   O610      2.32789      .   S
    Zr5    O610      3.27027      .   S
    N611   O612      2.30731      .   S
    Zr220  O612      3.23978      .   S
    N611   O613      2.33682      .   S
    Zr70   O613      3.28120      .   S
    N611   O614      2.28599      .   S
    Zr77   O614      3.22010      .   S
    N611   O615      2.25960      .   S
    Zr166  O615      3.18199      .   S
    N616   O617      2.29770      .   S
    Zr13   O617      3.23065      .   S
    N616   O618      2.29774      .   S
    Zr89   O618      3.23078      .   S
    N616   O619      2.30065      .   S
    Zr107  O619      3.23556      .   S
    N616   O620      2.30067      .   S
    Zr102  O620      3.23557      .   S
    N621   O622      2.30196      .   S
    Zr218  O622      3.23749      .   S
    N621   O623      2.30181      .   S
    Zr228  O623      3.23705      .   S
    N621   O624      2.32774      .   S
    Zr73   O624      3.26982      .   S
    N621   O625      2.32789      .   S
    Zr13   O625      3.27027      .   S
    N626   O627      2.32654      .   S
    Zr134  O627      3.27026      .   S
    N626   O628      2.34264      .   S
    Zr174  O628      3.28780      .   S
    N626   O629      2.32484      .   S
    Zr199  O629      3.26559      .   S
    N626   O630      2.34963      .   S
    Zr14   O630      3.30027      .   S
    N631   O632      2.32521      .   S
    Zr15   O632      3.27014      .   S
    N631   O633      2.32511      .   S
    Zr91   O633      3.27005      .   S
    N631   O634      2.30416      .   S
    Zr198  O634      3.24798      .   S
    N631   O635      2.30416      .   S
    Zr199  O635      3.24798      .   S
    N636   O637      2.34970      .   S
    Zr48   O637      3.30035      .   S
    N636   O638      2.32649      .   S
    Zr144  O638      3.27041      .   S
    N636   O639      2.34259      .   S
    Zr180  O639      3.28774  1_545   S
    N636   O640      2.32462      .   S
    Zr204  O640      3.26566      .   S
    N641   O642      2.32516      .   S
    Zr49   O642      3.27009      .   S
    N641   O643      2.30416      .   S
    Zr204  O643      3.24798  1_455   S
    N641   O644      2.32516      .   S
    Zr27   O644      3.27009      .   S
    N641   O645      2.30416      .   S
    Zr205  O645      3.24798  1_545   S
    N646   O647      2.33682      .   S
    Zr20   O647      3.28120      .   S
    N646   O648      2.30731  1_545   S
    Zr242  O648      3.23930      .   S
    N646   O649      2.28599  1_545   S
    Zr27   O649      3.22071      .   S
    N646   O650      2.25949      .   S
    Zr140  O650      3.18210      .   S
    N651   O652      2.29767      .   S
    Zr87   O652      3.23053      .   S
    N651   O653      2.30064      .   S
    Zr98   O653      3.23555      .   S
    N651   O654      2.29767      .   S
    Zr19   O654      3.23053      .   S
    N651   O655      2.30064      .   S
    Zr105  O655      3.23555      .   S
    N656   O657      2.32774      .   S
    Zr19   O657      3.26982      .   S
    N656   O658      2.30196      .   S
    Zr234  O658      3.23749      .   S
    N656   O659      2.32789      .   S
    Zr91   O659      3.27027      .   S
    N656   O660      2.30181      .   S
    Zr230  O660      3.23705      .   S
    N661   O662      2.33188      .   S
    Zr18   O662      3.27587      .   S
    N661   O663      2.33706      .   S
    Zr58   O663      3.28134      .   S
    N661   O664      2.33188      .   S
    Zr86   O664      3.27587      .   S
    N661   O665      2.33706      .   S
    Zr24   O665      3.28134      .   S
    N666   O667      2.34259      .   S
    Zr170  O667      3.28775      .   S
    N666   O668      2.32650      .   S
    Zr124  O668      3.27039      .   S
    N666   O669      2.32476      .   S
    Zr194  O669      3.26562      .   S
    N666   O670      2.34965      .   S
    Zr4    O670      3.30030      .   S
    N671   O672      2.32511      .   S
    Zr5    O672      3.27005      .   S
    N671   O673      2.30416      .   S
    Zr194  O673      3.24798      .   S
    N671   O674      2.32521      .   S
    Zr77   O674      3.27014      .   S
    N671   O675      2.30416      .   S
    Zr195  O675      3.24798      .   S
    N676   O677      2.26915      .   S
    Zr98   O677      3.20286      .   S
    N676   O678      2.26915      .   S
    Zr101  O678      3.20286      .   S
    N676   O679      2.26917      .   S
    Zr99   O679      3.20289      .   S
    N676   O680      2.26917      .   S
    Zr103  O680      3.20289      .   S
    N681   O682      2.30731      .   S
    Zr232  O682      3.23930      .   S
    N681   O683      2.28599      .   S
    Zr85   O683      3.22071      .   S
    N681   O684      2.25949      .   S
    Zr156  O684      3.18210      .   S
    N681   O685      2.33682      .   S
    Zr60   O685      3.28120      .   S
    N686   O687      2.26913      .   S
    Zr104  O687      3.20284      .   S
    N686   O688      2.26913      .   S
    Zr96   O688      3.20284      .   S
    N686   O689      2.26920      .   S
    Zr98   O689      3.20292      .   S
    N686   O690      2.26920      .   S
    Zr105  O690      3.20292      .   S
    N691   O692      2.33682      .   S
    Zr52   O692      3.28120      .   S
    N691   O693      2.28599      .   S
    Zr95   O693      3.22071      .   S
    N691   O694      2.25949      .   S
    Zr148  O694      3.18210      .   S
    N691   O695      2.30731      .   S
    Zr224  O695      3.23930      .   S
    N696   O697      2.25950      .   S
    Zr124  O697      3.18208      .   S
    N696   O698      2.28599      .   S
    Zr5    O698      3.22032      .   S
    N696   O699      2.33682      .   S
    Zr46   O699      3.28120      .   S
    N696   O700      2.30731      .   S
    Zr220  O700      3.23937      .   S
    N701   O702      2.29770      .   S
    Zr5    O702      3.23065      .   S
    N701   O703      2.29774      .   S
    Zr77   O703      3.23078      .   S
    N701   O704      2.30065      .   S
    Zr103  O704      3.23556      .   S
    N701   O705      2.30067      .   S
    Zr98   O705      3.23557      .   S
    N706   O707      2.33709      .   S
    Zr28   O707      3.28130      .   S
    N706   O708      2.33189      .   S
    Zr80   O708      3.27588      .   S
    N706   O709      2.33186      .   S
    Zr22   O709      3.27584      .   S
    N706   O710      2.33698      .   S
    Zr56   O710      3.28149      .   S
    N711   O712      2.34963      .   S
    Zr28   O712      3.30027      .   S
    N711   O713      2.32654      .   S
    Zr142  O713      3.27026      .   S
    N711   O714      2.34264      .   S
    Zr182  O714      3.28780  1_554   S
    N711   O715      2.32484      .   S
    Zr206  O715      3.26559      .   S
    N716   O717      2.32521      .   S
    Zr29   O717      3.27014      .   S
    N716   O718      2.32511      .   S
    Zr53   O718      3.27005      .   S
    N716   O719      2.30416      .   S
    Zr207  O719      3.24798  1_554   S
    N716   O720      2.30416      .   S
    Zr206  O720      3.24798      .   S
    N721   O722      2.33709      .   S
    Zr70   O722      3.28130      .   S
    N721   O723      2.33186      .   S
    Zr76   O723      3.27584      .   S
    N721   O724      2.33189      .   S
    Zr4    O724      3.27588      .   S
    N721   O725      2.33698      .   S
    Zr46   O725      3.28149      .   S
    N726   O727      2.33682      .   S
    Zr90   O727      3.28120      .   S
    N726   O728      2.28599  1_455   S
    Zr49   O728      3.22071      .   S
    N726   O729      2.25949      .   S
    Zr144  O729      3.18210      .   S
    N726   O730      2.30731  1_455   S
    Zr242  O730      3.23930      .   S
    N731   O732      2.28599      .   S
    Zr21   O732      3.22032      .   S
    N731   O733      2.25950      .   S
    Zr140  O733      3.18208      .   S
    N731   O734      2.30731      .   S
    Zr236  O734      3.23937      .   S
    N731   O735      2.33682      .   S
    Zr26   O735      3.28120      .   S
    N736   O737      2.30731      .   S
    Zr230  O737      3.23978      .   S
    N736   O738      2.33682      .   S
    Zr34   O738      3.28120      .   S
    N736   O739      2.28599      .   S
    Zr15   O739      3.22010      .   S
    N736   O740      2.25960      .   S
    Zr134  O740      3.18199      .   S
    N741   O742      2.30731      .   S
    Zr236  O742      3.23978      .   S
    N741   O743      2.28599      .   S
    Zr83   O743      3.22010      .   S
    N741   O744      2.25960      .   S
    Zr158  O744      3.18199      .   S
    N741   O745      2.33682      .   S
    Zr62   O745      3.28120      .   S
    N746   O747      2.34970      .   S
    Zr26   O747      3.30035      .   S
    N746   O748      2.32649      .   S
    Zr140  O748      3.27041      .   S
    N746   O749      2.34259      .   S
    Zr180  O749      3.28774  1_455   S
    N746   O750      2.32462      .   S
    Zr205  O750      3.26566      .   S
    N751   O752      2.34965      .   S
    Zr42   O752      3.30030      .   S
    N751   O753      2.32650      .   S
    Zr120  O753      3.27039      .   S
    N751   O754      2.34259      .   S
    Zr188  O754      3.28775      .   S
    N751   O755      2.32476      .   S
    Zr213  O755      3.26562      .   S
    N756   O757      2.34963      .   S
    Zr34   O757      3.30027      .   S
    N756   O758      2.32654      .   S
    Zr134  O758      3.27026      .   S
    N756   O759      2.34264      .   S
    Zr184  O759      3.28780  1_545   S
    N756   O760      2.32484      .   S
    Zr209  O760      3.26559      .   S
    N761   O762      2.34963      .   S
    Zr62   O762      3.30027      .   S
    N761   O763      2.32654      .   S
    Zr158  O763      3.27026      .   S
    N761   O764      2.34264      .   S
    Zr188  O764      3.28780  1_455   S
    N761   O765      2.32484      .   S
    Zr212  O765      3.26559      .   S
    N766   O767      2.34965      .   S
    Zr68   O767      3.30030      .   S
    N766   O768      2.32650      .   S
    Zr164  O768      3.27039      .   S
    N766   O769      2.34259      .   S
    Zr184  O769      3.28775      .   S
    N766   O770      2.32476      .   S
    Zr208  O770      3.26562      .   S
    N771   O772      2.32649      .   S
    Zr128  O772      3.27041      .   S
    N771   O773      2.34970      .   S
    Zr8    O773      3.30035      .   S
    N771   O774      2.32462      .   S
    Zr196  O774      3.26566      .   S
    N771   O775      2.34259      .   S
    Zr172  O775      3.28774      .   S
    N776   O777      2.32784      .   S
    Zr77   O777      3.27010      .   S
    N776   O778      2.30192      .   S
    Zr220  O778      3.23736      .   S
    N776   O779      2.32784      .   S
    Zr15   O779      3.27010      .   S
    N776   O780      2.30192      .   S
    Zr230  O780      3.23736      .   S
    N781   O782      2.33704      .   S
    Zr30   O782      3.28138      .   S
    N781   O783      2.33704      .   S
    Zr60   O783      3.28138      .   S
    N781   O784      2.33187      .   S
    Zr84   O784      3.27586      .   S
    N781   O785      2.33187      .   S
    Zr16   O785      3.27586      .   S
    N786   O787      2.32649      .   S
    Zr136  O787      3.27041      .   S
    N786   O788      2.34259      .   S
    Zr176  O788      3.28774      .   S
    N786   O789      2.32462      .   S
    Zr200  O789      3.26566      .   S
    N786   O790      2.34970      .   S
    Zr16   O790      3.30035      .   S
    N791   O792      2.26915      .   S
    Zr102  O792      3.20286      .   S
    N791   O793      2.26917      .   S
    Zr107  O793      3.20289      .   S
    N791   O794      2.26917      .   S
    Zr103  O794      3.20289      .   S
    N791   O795      2.26915      .   S
    Zr105  O795      3.20286      .   S
    N796   O797      2.25949      .   S
    Zr124  O797      3.18210      .   S
    N796   O798      2.33682      .   S
    Zr4    O798      3.28120      .   S
    N796   O799      2.28599  1_554   S
    Zr47   O799      3.22071      .   S
    N796   O800      2.30731  1_554   S
    Zr262  O800      3.23930      .   S
    N801   O802      2.34259      .   S
    Zr174  O802      3.28775      .   S
    N801   O803      2.32476      .   S
    Zr198  O803      3.26562      .   S
    N801   O804      2.34965      .   S
    Zr90   O804      3.30030      .   S
    N801   O805      2.32650      .   S
    Zr144  O805      3.27039      .   S
    N806   O807      2.29774      .   S
    Zr41   O807      3.23078      .   S
    N806   O808      2.30065      .   S
    Zr116  O808      3.23556      .   S
    N806   O809      2.29770      .   S
    Zr61   O809      3.23065      .   S
    N806   O810      2.30067      .   S
    Zr108  O810      3.23557      .   S
    N811   O812      2.29774      .   S
    Zr71   O812      3.23078      .   S
    N811   O813      2.30065      .   S
    Zr116  O813      3.23556      .   S
    N811   O814      2.29770      .   S
    Zr33   O814      3.23065      .   S
    N811   O815      2.30067      .   S
    Zr112  O815      3.23557      .   S
    N816   O817      2.29767      .   S
    Zr51   O817      3.23053      .   S
    N816   O818      2.30064      .   S
    Zr112  O818      3.23555      .   S
    N816   O819      2.29767      .   S
    Zr25   O819      3.23053      .   S
    N816   O820      2.30064      .   S
    Zr108  O820      3.23555      .   S
    N821   O822      2.28599      .   S
    Zr91   O822      3.22032      .   S
    N821   O823      2.25950      .   S
    Zr144  O823      3.18208      .   S
    N821   O824      2.33682      .   S
    Zr48   O824      3.28120      .   S
    N821   O825      2.30731      .   S
    Zr230  O825      3.23937      .   S
    N826   O827      2.32476      .   S
    Zr198  O827      3.26562      .   S
    N826   O828      2.32650      .   S
    Zr132  O828      3.27039      .   S
    N826   O829      2.34259      .   S
    Zr174  O829      3.28775      .   S
    N826   O830      2.34965      .   S
    Zr12   O830      3.30030      .   S
    N831   O832      2.28599      .   S
    Zr87   O832      3.22048      .   S
    N831   O833      2.25944      .   S
    Zr154  O833      3.18214      .   S
    N831   O834      2.30731      .   S
    Zr234  O834      3.23920      .   S
    N831   O835      2.33682      .   S
    Zr58   O835      3.28120      .   S
    N836   O837      2.30731  1_455   S
    Zr240  O837      3.23920      .   S
    N836   O838      2.25944      .   S
    Zr138  O838      3.18214      .   S
    N836   O839      2.33682      .   S
    Zr18   O839      3.28120      .   S
    N836   O840      2.28599  1_455   S
    Zr25   O840      3.22048      .   S
    N841   O842      2.33709      .   S
    Zr34   O842      3.28130      .   S
    N841   O843      2.33698      .   S
    Zr48   O843      3.28149      .   S
    N841   O844      2.33189      .   S
    Zr90   O844      3.27588      .   S
    N841   O845      2.33186      .   S
    Zr14   O845      3.27584      .   S
    N846   O847      2.33706      .   S
    Zr18   O847      3.28134  1_565   S
    N846   O848      2.33188      .   S
    Zr24   O848      3.27587  1_565   S
    N846   O849      2.33188      .   S
    Zr50   O849      3.27587  1_655   S
    N846   O850      2.33706      .   S
    Zr92   O850      3.28134  1_655   S
    N851   O852      2.34963      .   S
    Zr18   O852      3.30028      .   S
    N851   O853      2.32655      .   S
    Zr138  O853      3.27022      .   S
    N851   O854      2.34265      .   S
    Zr176  O854      3.28780      .   S
    N851   O855      2.32481      .   S
    Zr201  O855      3.26560      .   S
    N856   O857      2.28599      .   S
    Zr17   O857      3.22071      .   S
    N856   O858      2.25949      .   S
    Zr136  O858      3.18210      .   S
    N856   O859      2.30731      .   S
    Zr232  O859      3.23930      .   S
    N856   O860      2.33682      .   S
    Zr30   O860      3.28120      .   S
    N861   O862      2.33682      .   S
    Zr16   O862      3.28120      .   S
    N861   O863      2.30731  1_554   S
    Zr246  O863      3.23937      .   S
    N861   O864      2.28599  1_554   S
    Zr31   O864      3.22032      .   S
    N861   O865      2.25950      .   S
    Zr136  O865      3.18208      .   S
    N866   O867      2.32521      .   S
    Zr55   O867      3.27014      .   S
    N866   O868      2.30416      .   S
    Zr206  O868      3.24798      .   S
    N866   O869      2.32511      .   S
    Zr31   O869      3.27005      .   S
    N866   O870      2.30416      .   S
    Zr207  O870      3.24798  1_554   S
    N871   O872      2.28599      .   S
    Zr55   O872      3.22010      .   S
    N871   O873      2.25960      .   S
    Zr150  O873      3.18199      .   S
    N871   O874      2.30731      .   S
    Zr246  O874      3.23978      .   S
    N871   O875      2.33682      .   S
    Zr88   O875      3.28120      .   S
    N876   O877      2.33709      .   S
    Zr54   O877      3.28130      .   S
    N876   O878      2.33186      .   S
    Zr88   O878      3.27584      .   S
    N876   O879      2.33698      .   S
    Zr36   O879      3.28149      .   S
    N876   O880      2.33189      .   S
    Zr12   O880      3.27588      .   S
    N881   O882      2.32655      .   S
    Zr146  O882      3.27022      .   S
    N881   O883      2.34265      .   S
    Zr180  O883      3.28780  1_455   S
    N881   O884      2.32481      .   S
    Zr205  O884      3.26560      .   S
    N881   O885      2.34963      .   S
    Zr50   O885      3.30028      .   S
    N886   O887      2.32540      .   S
    Zr51   O887      3.27034      .   S
    N886   O888      2.30416      .   S
    Zr205  O888      3.24798  1_545   S
    N886   O889      2.32540      .   S
    Zr25   O889      3.27034      .   S
    N886   O890      2.30416      .   S
    Zr204  O890      3.24798  1_455   S
    N891   O892      2.26913      .   S
    Zr114  O892      3.20284      .   S
    N891   O893      2.26920      .   S
    Zr112  O893      3.20292      .   S
    N891   O894      2.26920      .   S
    Zr108  O894      3.20292      .   S
    N891   O895      2.26913      .   S
    Zr109  O895      3.20284      .   S
    N896   O897      2.29770      .   S
    Zr21   O897      3.23065      .   S
    N896   O898      2.30067      .   S
    Zr106  O898      3.23557      .   S
    N896   O899      2.29774      .   S
    Zr83   O899      3.23078      .   S
    N896   O900      2.30065      .   S
    Zr99   O900      3.23556      .   S
    N901   O902      2.29774      .   S
    Zr15   O902      3.23078      .   S
    N901   O903      2.30065      .   S
    Zr103  O903      3.23556      .   S
    N901   O904      2.29770      .   S
    Zr91   O904      3.23065      .   S
    N901   O905      2.30067      .   S
    Zr105  O905      3.23557      .   S
    N906   O907      2.29763      .   S
    Zr17   O907      3.23037      .   S
    N906   O908      2.30063      .   S
    Zr104  O908      3.23554      .   S
    N906   O909      2.29763      .   S
    Zr85   O909      3.23037      .   S
    N906   O910      2.30063      .   S
    Zr96   O910      3.23554      .   S
    N911   O912      2.32540      .   S
    Zr19   O912      3.27034      .   S
    N911   O913      2.30416      .   S
    Zr201  O913      3.24798      .   S
    N911   O914      2.32540      .   S
    Zr87   O914      3.27034      .   S
    N911   O915      2.30416      .   S
    Zr200  O915      3.24798      .   S
    N916   O917      2.32789      .   S
    Zr61   O917      3.27027      .   S
    N916   O918      2.30196      .   S
    Zr240  O918      3.23749      .   S
    N916   O919      2.30181      .   S
    Zr256  O919      3.23705      .   S
    N916   O920      2.32774      .   S
    Zr25   O920      3.26982      .   S
    N921   O922      2.34970      .   S
    Zr84   O922      3.30035      .   S
    N921   O923      2.32649      .   S
    Zr156  O923      3.27041      .   S
    N921   O924      2.34259      .   S
    Zr176  O924      3.28774      .   S
    N921   O925      2.32462      .   S
    Zr201  O925      3.26566      .   S
    N926   O927      2.29774      .   S
    Zr7    O927      3.23078      .   S
    N926   O928      2.29770      .   S
    Zr79   O928      3.23065      .   S
    N926   O929      2.30067      .   S
    Zr101  O929      3.23557      .   S
    N926   O930      2.30065      .   S
    Zr99   O930      3.23556      .   S
    N931   O932      2.30731      .   S
    Zr234  O932      3.23920      .   S
    N931   O933      2.28599      .   S
    Zr19   O933      3.22048      .   S
    N931   O934      2.25944      .   S
    Zr138  O934      3.18214      .   S
    N931   O935      2.33682      .   S
    Zr24   O935      3.28120      .   S
    N936   O937      2.33186      .   S
    Zr54   O937      3.27584  1_556   S
    N936   O938      2.33709      .   S
    Zr88   O938      3.28130  1_556   S
    N936   O939      2.33189      .   S
    Zr30   O939      3.27588      .   S
    N936   O940      2.33698      .   S
    Zr16   O940      3.28149      .   S
    N941   O942      2.34963      .   S
    Zr54   O942      3.30027      .   S
    N941   O943      2.32654      .   S
    Zr150  O943      3.27026      .   S
    N941   O944      2.34264      .   S
    Zr182  O944      3.28780  1_554   S
    N941   O945      2.32484      .   S
    Zr206  O945      3.26559      .   S
    N946   O947      2.34965      .   S
    Zr60   O947      3.30030      .   S
    N946   O948      2.32650      .   S
    Zr156  O948      3.27039      .   S
    N946   O949      2.34259      .   S
    Zr188  O949      3.28775      .   S
    N946   O950      2.32476      .   S
    Zr213  O950      3.26562      .   S
    N951   O952      2.32511      .   S
    Zr61   O952      3.27005      .   S
    N951   O953      2.30416      .   S
    Zr213  O953      3.24798  1_455   S
    N951   O954      2.32521      .   S
    Zr41   O954      3.27014      .   S
    N951   O955      2.30416      .   S
    Zr212  O955      3.24798      .   S
    N956   O957      2.30731      .   S
    Zr256  O957      3.23978      .   S
    N956   O958      2.28599      .   S
    Zr41   O958      3.22010      .   S
    N956   O959      2.25960      .   S
    Zr126  O959      3.18199      .   S
    N956   O960      2.33682      .   S
    Zr6    O960      3.28120      .   S
    N961   O962      2.32654      .   S
    Zr126  O962      3.27026      .   S
    N961   O963      2.34264      .   S
    Zr188  O963      3.28780  1_455   S
    N961   O964      2.32484      .   S
    Zr212  O964      3.26559      .   S
    N961   O965      2.34963      .   S
    Zr40   O965      3.30027      .   S
    N966   O967      2.34963      .   S
    Zr86   O967      3.30028      .   S
    N966   O968      2.32655      .   S
    Zr154  O968      3.27022      .   S
    N966   O969      2.34265      .   S
    Zr176  O969      3.28780      .   S
    N966   O970      2.32481      .   S
    Zr200  O970      3.26560      .   S
    N971   O972      2.34965      .   S
    Zr78   O972      3.30030      .   S
    N971   O973      2.32650      .   S
    Zr160  O973      3.27039      .   S
    N971   O974      2.34259      .   S
    Zr170  O974      3.28775      .   S
    N971   O975      2.32476      .   S
    Zr194  O975      3.26562      .   S
    N976   O977      2.32481      .   S
    Zr197  O977      3.26560      .   S
    N976   O978      2.32655      .   S
    Zr130  O978      3.27022      .   S
    N976   O979      2.34265      .   S
    Zr172  O979      3.28780      .   S
    N976   O980      2.34963      .   S
    Zr10   O980      3.30028      .   S
    N981   O982      2.34970      .   S
    Zr94   O982      3.30035      .   S
    N981   O983      2.32649      .   S
    Zr148  O983      3.27041      .   S
    N981   O984      2.34259      .   S
    Zr172  O984      3.28774      .   S
    N981   O985      2.32462      .   S
    Zr197  O985      3.26566      .   S
    N986   O987      2.33187      .   S
    Zr94   O987      3.27586      .   S
    N986   O988      2.33187      .   S
    Zr8    O988      3.27586      .   S
    N986   O989      2.33704      .   S
    Zr52   O989      3.28138      .   S
    N986   O990      2.33704      .   S
    Zr32   O990      3.28138      .   S
    N991   O992      2.30196      .   S
    Zr240  O992      3.23749      .   S
    N991   O993      2.30181      .   S
    Zr248  O993      3.23705      .   S
    N991   O994      2.32774      .   S
    Zr51   O994      3.26982      .   S
    N991   O995      2.32789      .   S
    Zr33   O995      3.27027      .   S
    N996   O997      2.32516      .   S
    Zr17   O997      3.27009      .   S
    N996   O998      2.30416      .   S
    Zr200  O998      3.24798      .   S
    N996   O999      2.32516      .   S
    Zr85   O999      3.27009      .   S
    N996   O1000     2.30416      .   S
    Zr201  O1000     3.24798      .   S
    N1001  O1002     2.32511      .   S
    Zr43   O1002     3.27005      .   S
    N1001  O1003     2.30416      .   S
    Zr213  O1003     3.24798  1_455   S
    N1001  O1004     2.32521      .   S
    Zr63   O1004     3.27014      .   S
    N1001  O1005     2.30416      .   S
    Zr212  O1005     3.24798      .   S
    N1006  O1007     2.30731      .   S
    Zr258  O1007     3.23978      .   S
    N1006  O1008     2.33682      .   S
    Zr82   O1008     3.28120      .   S
    N1006  O1009     2.28599      .   S
    Zr63   O1009     3.22010      .   S
    N1006  O1010     2.25960      .   S
    Zr158  O1010     3.18199      .   S
    N1011  O1012     2.29763      .   S
    Zr65   O1012     3.23037      .   S
    N1011  O1013     2.30063      .   S
    Zr119  O1013     3.23554      .   S
    N1011  O1014     2.29763      .   S
    Zr37   O1014     3.23037      .   S
    N1011  O1015     2.30063      .   S
    Zr114  O1015     3.23554      .   S
    N1016  O1017     2.32786      .   S
    Zr65   O1017     3.27016      .   S
    N1016  O1018     2.30193      .   S
    Zr252  O1018     3.23739      .   S
    N1016  O1019     2.30193      .   S
    Zr262  O1019     3.23739      .   S
    N1016  O1020     2.32786      .   S
    Zr47   O1020     3.27016      .   S
    N1021  O1022     2.33187      .   S
    Zr64   O1022     3.27586  1_655   S
    N1021  O1023     2.33704      .   S
    Zr78   O1023     3.28138  1_655   S
    N1021  O1024     2.33187      .   S
    Zr36   O1024     3.27586  1_556   S
    N1021  O1025     2.33704      .   S
    Zr12   O1025     3.28138  1_556   S
    N1026  O1027     2.34970      .   S
    Zr64   O1027     3.30035      .   S
    N1026  O1028     2.32649      .   S
    Zr160  O1028     3.27041      .   S
    N1026  O1029     2.34259      .   S
    Zr186  O1029     3.28774  1_455   S
    N1026  O1030     2.32462      .   S
    Zr211  O1030     3.26566      .   S
    N1031  O1032     2.32516      .   S
    Zr65   O1032     3.27009      .   S
    N1031  O1033     2.30416      .   S
    Zr211  O1033     3.24798  1_554   S
    N1031  O1034     2.32516      .   S
    Zr37   O1034     3.27009      .   S
    N1031  O1035     2.30416      .   S
    Zr210  O1035     3.24798  1_455   S
    N1036  O1037     2.30731  1_455   S
    Zr252  O1037     3.23930      .   S
    N1036  O1038     2.33682      .   S
    Zr12   O1038     3.28120      .   S
    N1036  O1039     2.28599  1_455   S
    Zr37   O1039     3.22071      .   S
    N1036  O1040     2.25949      .   S
    Zr132  O1040     3.18210      .   S
    N1041  O1042     2.32654      .   S
    Zr126  O1042     3.27026      .   S
    N1041  O1043     2.34963      .   S
    Zr6    O1043     3.30027      .   S
    N1041  O1044     2.32484      .   S
    Zr195  O1044     3.26559      .   S
    N1041  O1045     2.34264      .   S
    Zr170  O1045     3.28780      .   S
    N1046  O1047     2.28599  1_554   S
    Zr53   O1047     3.22032      .   S
    N1046  O1048     2.25950      .   S
    Zr148  O1048     3.18208      .   S
    N1046  O1049     2.33682      .   S
    Zr94   O1049     3.28120      .   S
    N1046  O1050     2.30731  1_554   S
    Zr244  O1050     3.23937      .   S
    N1051  O1052     2.28599  1_554   S
    Zr65   O1052     3.22071      .   S
    N1051  O1053     2.25949      .   S
    Zr160  O1053     3.18210      .   S
    N1051  O1054     2.33682      .   S
    Zr78   O1054     3.28120      .   S
    N1051  O1055     2.30731  1_554   S
    Zr252  O1055     3.23930      .   S
    N1056  O1057     2.33682      .   S
    Zr10   O1057     3.28120      .   S
    N1056  O1058     2.30731  1_554   S
    Zr254  O1058     3.23920      .   S
    N1056  O1059     2.28599  1_554   S
    Zr39   O1059     3.22048      .   S
    N1056  O1060     2.25944      .   S
    Zr130  O1060     3.18214      .   S
    N1061  O1062     2.33682      .   S
    Zr86   O1062     3.28120      .   S
    N1061  O1063     2.30731  1_554   S
    Zr260  O1063     3.23920      .   S
    N1061  O1064     2.28599  1_554   S
    Zr59   O1064     3.22048      .   S
    N1061  O1065     2.25944      .   S
    Zr154  O1065     3.18214      .   S
    N1066  O1067     2.34963      .   S
    Zr38   O1067     3.30028      .   S
    N1066  O1068     2.32655      .   S
    Zr130  O1068     3.27022      .   S
    N1066  O1069     2.34265      .   S
    Zr186  O1069     3.28780  1_455   S
    N1066  O1070     2.32481      .   S
    Zr211  O1070     3.26560      .   S
    N1071  O1072     2.34963      .   S
    Zr58   O1072     3.30028      .   S
    N1071  O1073     2.32655      .   S
    Zr154  O1073     3.27022      .   S
    N1071  O1074     2.34265      .   S
    Zr190  O1074     3.28780  1_545   S
    N1071  O1075     2.32481      .   S
    Zr215  O1075     3.26560      .   S
    N1076  O1077     2.34970      .   S
    Zr46   O1077     3.30035      .   S
    N1076  O1078     2.32649      .   S
    Zr124  O1078     3.27041      .   S
    N1076  O1079     2.34259      .   S
    Zr190  O1079     3.28774  1_545   S
    N1076  O1080     2.32462      .   S
    Zr215  O1080     3.26566      .   S
    N1081  O1082     2.33698      .   S
    Zr64   O1082     3.28149      .   S
    N1081  O1083     2.33189      .   S
    Zr78   O1083     3.27588      .   S
    N1081  O1084     2.33186      .   S
    Zr6    O1084     3.27584      .   S
    N1081  O1085     2.33709      .   S
    Zr40   O1085     3.28130      .   S
    N1086  O1087     2.29767      .   S
    Zr3    O1087     3.23053      .   S
    N1086  O1088     2.29767      .   S
    Zr73   O1088     3.23053      .   S
    N1086  O1089     2.30064      .   S
    Zr102  O1089     3.23555      .   S
    N1086  O1090     2.30064      .   S
    Zr97   O1090     3.23555      .   S
    N1091  O1092     2.32516      .   S
    Zr95   O1092     3.27009      .   S
    N1091  O1093     2.30416      .   S
    Zr197  O1093     3.24798      .   S
    N1091  O1094     2.30416      .   S
    Zr196  O1094     3.24798      .   S
    N1091  O1095     2.32516      .   S
    Zr9    O1095     3.27009      .   S
    N1096  O1097     2.33682      .   S
    Zr32   O1097     3.28120      .   S
    N1096  O1098     2.25949      .   S
    Zr128  O1098     3.18210      .   S
    N1096  O1099     2.30731      .   S
    Zr224  O1099     3.23930      .   S
    N1096  O1100     2.28599      .   S
    Zr9    O1100     3.22071      .   S
    N1101  O1102     2.29763      .   S
    Zr95   O1102     3.23037      .   S
    N1101  O1103     2.30063      .   S
    Zr104  O1103     3.23554      .   S
    N1101  O1104     2.30063      .   S
    Zr100  O1104     3.23554      .   S
    N1101  O1105     2.29763      .   S
    Zr9    O1105     3.23037      .   S
    N1106  O1107     2.32786      .   S
    Zr95   O1107     3.27016      .   S
    N1106  O1108     2.30193      .   S
    Zr232  O1108     3.23739      .   S
    N1106  O1109     2.30193      .   S
    Zr224  O1109     3.23739      .   S
    N1106  O1110     2.32786      .   S
    Zr17   O1110     3.27016      .   S
    N1111  O1112     2.33698      .   S
    Zr94   O1112     3.28149      .   S
    N1111  O1113     2.33709      .   S
    Zr22   O1113     3.28130  1_556   S
    N1111  O1114     2.33189      .   S
    Zr52   O1114     3.27588      .   S
    N1111  O1115     2.33186      .   S
    Zr28   O1115     3.27584  1_556   S
    N1116  O1117     2.33698      .   S
    Zr74   O1117     3.28149      .   S
    N1116  O1118     2.33189      .   S
    Zr68   O1118     3.27588      .   S
    N1116  O1119     2.33186      .   S
    Zr34   O1119     3.27584  1_565   S
    N1116  O1120     2.33709      .   S
    Zr14   O1120     3.28130  1_565   S
    N1121  O1122     2.34970      .   S
    Zr74   O1122     3.30035      .   S
    N1121  O1123     2.32649      .   S
    Zr164  O1123     3.27041      .   S
    N1121  O1124     2.34259      .   S
    Zr168  O1124     3.28774      .   S
    N1121  O1125     2.32462      .   S
    Zr193  O1125     3.26566      .   S
    N1126  O1127     2.32789      .   S
    Zr79   O1127     3.27027      .   S
    N1126  O1128     2.32774      .   S
    Zr11   O1128     3.26982      .   S
    N1126  O1129     2.30196      .   S
    Zr226  O1129     3.23749      .   S
    N1126  O1130     2.30181      .   S
    Zr222  O1130     3.23705      .   S
    N1131  O1132     2.30416      .   S
    Zr195  O1132     3.24798      .   S
    N1131  O1133     2.32521      .   S
    Zr7    O1133     3.27014      .   S
    N1131  O1134     2.32511      .   S
    Zr79   O1134     3.27005      .   S
    N1131  O1135     2.30416      .   S
    Zr194  O1135     3.24798      .   S
    N1136  O1137     2.28599  1_545   S
    Zr33   O1137     3.22032      .   S
    N1136  O1138     2.25950      .   S
    Zr128  O1138     3.18208      .   S
    N1136  O1139     2.30731  1_545   S
    Zr248  O1139     3.23937      .   S
    N1136  O1140     2.33682      .   S
    Zr8    O1140     3.28120      .   S
    N1141  O1142     2.28599      .   S
    Zr71   O1142     3.22010      .   S
    N1141  O1143     2.25960      .   S
    Zr166  O1143     3.18199      .   S
    N1141  O1144     2.33682      .   S
    Zr76   O1144     3.28120      .   S
    N1141  O1145     2.30731      .   S
    Zr248  O1145     3.23978      .   S
    N1146  O1147     2.33682      .   S
    Zr84   O1147     3.28120      .   S
    N1146  O1148     2.30731  1_455   S
    Zr256  O1148     3.23937      .   S
    N1146  O1149     2.28599  1_455   S
    Zr61   O1149     3.22032      .   S
    N1146  O1150     2.25950      .   S
    Zr156  O1150     3.18208      .   S
    N1151  O1152     2.30192      .   S
    Zr222  O1152     3.23736      .   S
    N1151  O1153     2.32784      .   S
    Zr7    O1153     3.27010      .   S
    N1151  O1154     2.30192      .   S
    Zr236  O1154     3.23736      .   S
    N1151  O1155     2.32784      .   S
    Zr83   O1155     3.27010      .   S
    N1156  O1157     2.30196      .   S
    Zr218  O1157     3.23749      .   S
    N1156  O1158     2.32789      .   S
    Zr81   O1158     3.27027      .   S
    N1156  O1159     2.32774      .   S
    Zr3    O1159     3.26982      .   S
    N1156  O1160     2.30181      .   S
    Zr238  O1160     3.23705      .   S
    N1161  O1162     2.33706      .   S
    Zr2    O1162     3.28134  1_556   S
    N1161  O1163     2.33188      .   S
    Zr58   O1163     3.27587  1_565   S
    N1161  O1164     2.33706      .   S
    Zr86   O1164     3.28134  1_565   S
    N1161  O1165     2.33188      .   S
    Zr44   O1165     3.27587  1_556   S
    N1166  O1167     2.32511      .   S
    Zr69   O1167     3.27005      .   S
    N1166  O1168     2.30416      .   S
    Zr208  O1168     3.24798  1_545   S
    N1166  O1169     2.32521      .   S
    Zr35   O1169     3.27014      .   S
    N1166  O1170     2.30416      .   S
    Zr209  O1170     3.24798      .   S
    N1171  O1172     2.32540      .   S
    Zr59   O1172     3.27034      .   S
    N1171  O1173     2.30416      .   S
    Zr215  O1173     3.24798  1_554   S
    N1171  O1174     2.32540      .   S
    Zr45   O1174     3.27034      .   S
    N1171  O1175     2.30416      .   S
    Zr214  O1175     3.24798  1_545   S
    N1176  O1177     2.30064      .   S
    Zr111  O1177     3.23555      .   S
    N1176  O1178     2.29767      .   S
    Zr59   O1178     3.23053      .   S
    N1176  O1179     2.29767      .   S
    Zr45   O1179     3.23053      .   S
    N1176  O1180     2.30064      .   S
    Zr118  O1180     3.23555      .   S
    N1181  O1182     2.32774      .   S
    Zr59   O1182     3.26982      .   S
    N1181  O1183     2.30181      .   S
    Zr246  O1183     3.23705      .   S
    N1181  O1184     2.32789      .   S
    Zr31   O1184     3.27027      .   S
    N1181  O1185     2.30196      .   S
    Zr260  O1185     3.23749      .   S
    N1186  O1187     2.30196      .   S
    Zr260  O1187     3.23749      .   S
    N1186  O1188     2.32789      .   S
    Zr69   O1188     3.27027      .   S
    N1186  O1189     2.30181      .   S
    Zr250  O1189     3.23705      .   S
    N1186  O1190     2.32774      .   S
    Zr45   O1190     3.26982      .   S
    N1191  O1192     2.26917      .   S
    Zr113  O1192     3.20289      .   S
    N1191  O1193     2.26915      .   S
    Zr111  O1193     3.20286      .   S
    N1191  O1194     2.26915      .   S
    Zr115  O1194     3.20286      .   S
    N1191  O1195     2.26917      .   S
    Zr110  O1195     3.20289      .   S
    N1196  O1197     2.29774      .   S
    Zr55   O1197     3.23078      .   S
    N1196  O1198     2.30065      .   S
    Zr113  O1198     3.23556      .   S
    N1196  O1199     2.29770      .   S
    Zr31   O1199     3.23065      .   S
    N1196  O1200     2.30067      .   S
    Zr111  O1200     3.23557      .   S
    N1201  O1202     2.32784      .   S
    Zr55   O1202     3.27010      .   S
    N1201  O1203     2.30192      .   S
    Zr250  O1203     3.23736      .   S
    N1201  O1204     2.30192      .   S
    Zr246  O1204     3.23736      .   S
    N1201  O1205     2.32784      .   S
    Zr35   O1205     3.27010      .   S
    N1206  O1207     2.34970      .   S
    Zr36   O1207     3.30035      .   S
    N1206  O1208     2.32649      .   S
    Zr132  O1208     3.27041      .   S
    N1206  O1209     2.34259      .   S
    Zr186  O1209     3.28774  1_554   S
    N1206  O1210     2.32462      .   S
    Zr210  O1210     3.26566      .   S
    N1211  O1212     2.30731      .   S
    Zr218  O1212     3.23920      .   S
    N1211  O1213     2.33682      .   S
    Zr44   O1213     3.28120      .   S
    N1211  O1214     2.25944      .   S
    Zr122  O1214     3.18214      .   S
    N1211  O1215     2.28599      .   S
    Zr3    O1215     3.22048      .   S
    N1216  O1217     2.26917      .   S
    Zr107  O1217     3.20289      .   S
    N1216  O1218     2.26915      .   S
    Zr106  O1218     3.20286      .   S
    N1216  O1219     2.26915      .   S
    Zr97   O1219     3.20286      .   S
    N1216  O1220     2.26917      .   S
    Zr99   O1220     3.20289      .   S
    N1221  O1222     2.33187      .   S
    Zr48   O1222     3.27586  1_565   S
    N1221  O1223     2.33187      .   S
    Zr26   O1223     3.27586  1_655   S
    N1221  O1224     2.33704      .   S
    Zr20   O1224     3.28138  1_655   S
    N1221  O1225     2.33704      .   S
    Zr90   O1225     3.28138  1_565   S
    N1226  O1227     2.30731      .   S
    Zr244  O1227     3.23978      .   S
    N1226  O1228     2.33682      .   S
    Zr22   O1228     3.28120      .   S
    N1226  O1229     2.28599      .   S
    Zr29   O1229     3.22010      .   S
    N1226  O1230     2.25960      .   S
    Zr142  O1230     3.18199      .   S
    N1231  O1232     2.29770      .   S
    Zr53   O1232     3.23065      .   S
    N1231  O1233     2.30067      .   S
    Zr115  O1233     3.23557      .   S
    N1231  O1234     2.29774      .   S
    Zr29   O1234     3.23078      .   S
    N1231  O1235     2.30065      .   S
    Zr110  O1235     3.23556      .   S
    N1236  O1237     2.32774      .   S
    Zr39   O1237     3.26982      .   S
    N1236  O1238     2.30196      .   S
    Zr254  O1238     3.23749      .   S
    N1236  O1239     2.32789      .   S
    Zr53   O1239     3.27027      .   S
    N1236  O1240     2.30181      .   S
    Zr244  O1240     3.23705      .   S
    N1241  O1242     2.26913      .   S
    Zr119  O1242     3.20284      .   S
    N1241  O1243     2.26920      .   S
    Zr117  O1243     3.20292      .   S
    N1241  O1244     2.26913      .   S
    Zr114  O1244     3.20284      .   S
    N1241  O1245     2.26920      .   S
    Zr115  O1245     3.20292      .   S
    N1246  O1247     2.30193      .   S
    Zr252  O1247     3.23739      .   S
    N1246  O1248     2.32786      .   S
    Zr49   O1248     3.27016      .   S
    N1246  O1249     2.32786      .   S
    Zr37   O1249     3.27016      .   S
    N1246  O1250     2.30193      .   S
    Zr242  O1250     3.23739      .   S
    N1251  O1252     2.30731      .   S
    Zr250  O1252     3.23978      .   S
    N1251  O1253     2.28599      .   S
    Zr35   O1253     3.22010      .   S
    N1251  O1254     2.25960      .   S
    Zr134  O1254     3.18199      .   S
    N1251  O1255     2.33682      .   S
    Zr14   O1255     3.28120      .   S
    N1256  O1257     2.28599  1_545   S
    Zr69   O1257     3.22032      .   S
    N1256  O1258     2.25950      .   S
    Zr164  O1258     3.18208      .   S
    N1256  O1259     2.30731  1_545   S
    Zr250  O1259     3.23937      .   S
    N1256  O1260     2.33682      .   S
    Zr74   O1260     3.28120      .   S
    N1261  O1262     2.26915      .   S
    Zr118  O1262     3.20286      .   S
    N1261  O1263     2.26917      .   S
    Zr116  O1263     3.20289      .   S
    N1261  O1264     2.26915      .   S
    Zr112  O1264     3.20286      .   S
    N1261  O1265     2.26917      .   S
    Zr113  O1265     3.20289      .   S
    N1266  O1267     2.29770      .   S
    Zr69   O1267     3.23065      .   S
    N1266  O1268     2.30067      .   S
    Zr118  O1268     3.23557      .   S
    N1266  O1269     2.29774      .   S
    Zr35   O1269     3.23078      .   S
    N1266  O1270     2.30065      .   S
    Zr113  O1270     3.23556      .   S
    N1271  O1272     2.33682      .   S
    Zr54   O1272     3.28120      .   S
    N1271  O1273     2.30731      .   S
    Zr228  O1273     3.23978      .   S
    N1271  O1274     2.28599      .   S
    Zr89   O1274     3.22010      .   S
    N1271  O1275     2.25960      .   S
    Zr150  O1275     3.18199      .   S
    N1276  O1277     2.32784      .   S
    Zr71   O1277     3.27010      .   S
    N1276  O1278     2.30192      .   S
    Zr256  O1278     3.23736      .   S
    N1276  O1279     2.30192      .   S
    Zr248  O1279     3.23736      .   S
    N1276  O1280     2.32784      .   S
    Zr41   O1280     3.27010      .   S
    N1281  O1282     2.33189      .   S
    Zr60   O1282     3.27588      .   S
    N1281  O1283     2.33698      .   S
    Zr84   O1283     3.28149      .   S
    N1281  O1284     2.33186      .   S
    Zr40   O1284     3.27584  1_655   S
    N1281  O1285     2.33709      .   S
    Zr6    O1285     3.28130  1_655   S
    N1286  O1287     2.26913      .   S
    Zr109  O1287     3.20284      .   S
    N1286  O1288     2.26920      .   S
    Zr111  O1288     3.20292      .   S
    N1286  O1289     2.26913      .   S
    Zr119  O1289     3.20284      .   S
    N1286  O1290     2.26920      .   S
    Zr118  O1290     3.20292      .   S
    N1291  O1292     2.25950      .   S
    Zr132  O1292     3.18208      .   S
    N1291  O1293     2.28599      .   S
    Zr13   O1293     3.22032      .   S
    N1291  O1294     2.30731      .   S
    Zr228  O1294     3.23937      .   S
    N1291  O1295     2.33682      .   S
    Zr36   O1295     3.28120      .   S
    N1296  O1297     2.34963      .   S
    Zr76   O1297     3.30027      .   S
    N1296  O1298     2.32654      .   S
    Zr166  O1298     3.27026      .   S
    N1296  O1299     2.34264      .   S
    Zr170  O1299     3.28780      .   S
    N1296  O1300     2.32484      .   S
    Zr195  O1300     3.26559      .   S
    N1301  O1302     2.33186      .   S
    Zr70   O1302     3.27584  1_565   S
    N1301  O1303     2.33698      .   S
    Zr8    O1303     3.28149      .   S
    N1301  O1304     2.33709      .   S
    Zr76   O1304     3.28130  1_565   S
    N1301  O1305     2.33189      .   S
    Zr32   O1305     3.27588      .   S
    N1306  O1307     2.26915      .   S
    Zr117  O1307     3.20286      .   S
    N1306  O1308     2.26917      .   S
    Zr110  O1308     3.20289      .   S
    N1306  O1309     2.26917      .   S
    Zr116  O1309     3.20289      .   S
    N1306  O1310     2.26915      .   S
    Zr108  O1310     3.20286      .   S
    N1311  O1312     2.34963      .   S
    Zr24   O1312     3.30028      .   S
    N1311  O1313     2.32655      .   S
    Zr138  O1313     3.27022      .   S
    N1311  O1314     2.34265      .   S
    Zr180  O1314     3.28780  1_545   S
    N1311  O1315     2.32481      .   S
    Zr204  O1315     3.26560      .   S
    N1316  O1317     2.34963      .   S
    Zr70   O1317     3.30027      .   S
    N1316  O1318     2.32654      .   S
    Zr166  O1318     3.27026      .   S
    N1316  O1319     2.34264      .   S
    Zr184  O1319     3.28780  1_545   S
    N1316  O1320     2.32484      .   S
    Zr209  O1320     3.26559      .   S
    N1321  O1322     2.34965      .   S
    Zr32   O1322     3.30030      .   S
    N1321  O1323     2.32650      .   S
    Zr128  O1323     3.27039      .   S
    N1321  O1324     2.34259      .   S
    Zr184  O1324     3.28775      .   S
    N1321  O1325     2.32476      .   S
    Zr208  O1325     3.26562      .   S
    N1326  O1327     2.33682      .   S
    Zr40   O1327     3.28120      .   S
    N1326  O1328     2.25960      .   S
    Zr126  O1328     3.18199      .   S
    N1326  O1329     2.30731      .   S
    Zr222  O1329     3.23978      .   S
    N1326  O1330     2.28599      .   S
    Zr7    O1330     3.22010      .   S
    N1331  O1332     2.34965      .   S
    Zr52   O1332     3.30030      .   S
    N1331  O1333     2.32650      .   S
    Zr148  O1333     3.27039      .   S
    N1331  O1334     2.34259      .   S
    Zr182  O1334     3.28775      .   S
    N1331  O1335     2.32476      .   S
    Zr207  O1335     3.26562      .   S
    N1336  O1337     2.33704      .   S
    Zr4    O1337     3.28138  1_565   S
    N1336  O1338     2.33704      .   S
    Zr80   O1338     3.28138  1_556   S
    N1336  O1339     2.33187      .   S
    Zr56   O1339     3.27586  1_556   S
    N1336  O1340     2.33187      .   S
    Zr46   O1340     3.27586  1_565   S
    N1341  O1342     2.25960      .   S
    Zr142  O1342     3.18199      .   S
    N1341  O1343     2.30731      .   S
    Zr238  O1343     3.23978      .   S
    N1341  O1344     2.28599      .   S
    Zr23   O1344     3.22010      .   S
    N1341  O1345     2.33682      .   S
    Zr28   O1345     3.28120      .   S
    N1346  O1347     2.33698      .   S
    Zr26   O1347     3.28149      .   S
    N1346  O1348     2.33709      .   S
    Zr62   O1348     3.28130      .   S
    N1346  O1349     2.33189      .   S
    Zr20   O1349     3.27588      .   S
    N1346  O1350     2.33186      .   S
    Zr82   O1350     3.27584      .   S
    N1351  O1352     2.29767      .   S
    Zr39   O1352     3.23053      .   S
    N1351  O1353     2.30064      .   S
    Zr115  O1353     3.23555      .   S
    N1351  O1354     2.30064      .   S
    Zr117  O1354     3.23555      .   S
    N1351  O1355     2.29767      .   S
    Zr67   O1355     3.23053      .   S
    N1356  O1357     2.32540      .   S
    Zr67   O1357     3.27034      .   S
    N1356  O1358     2.30416      .   S
    Zr210  O1358     3.24798  1_455   S
    N1356  O1359     2.32540      .   S
    Zr39   O1359     3.27034      .   S
    N1356  O1360     2.30416      .   S
    Zr211  O1360     3.24798  1_554   S
    N1361  O1362     2.29770      .   S
    Zr81   O1362     3.23065      .   S
    N1361  O1363     2.30067      .   S
    Zr97   O1363     3.23557      .   S
    N1361  O1364     2.29774      .   S
    Zr23   O1364     3.23078      .   S
    N1361  O1365     2.30065      .   S
    Zr107  O1365     3.23556      .   S
    N1366  O1367     2.32784      .   S
    Zr89   O1367     3.27010      .   S
    N1366  O1368     2.30192      .   S
    Zr238  O1368     3.23736      .   S
    N1366  O1369     2.32784      .   S
    Zr23   O1369     3.27010      .   S
    N1366  O1370     2.30192      .   S
    Zr228  O1370     3.23736      .   S
    N1371  O1372     2.34965      .   S
    Zr30   O1372     3.30030      .   S
    N1371  O1373     2.32650      .   S
    Zr136  O1373     3.27039      .   S
    N1371  O1374     2.34259      .   S
    Zr182  O1374     3.28775      .   S
    N1371  O1375     2.32476      .   S
    Zr207  O1375     3.26562      .   S
    N1376  O1377     2.32521      .   S
    Zr71   O1377     3.27014      .   S
    N1376  O1378     2.30416      .   S
    Zr209  O1378     3.24798      .   S
    N1376  O1379     2.32511      .   S
    Zr33   O1379     3.27005      .   S
    N1376  O1380     2.30416      .   S
    Zr208  O1380     3.24798  1_545   S
    N1381  O1382     2.33188      .   S
    Zr38   O1382     3.27587  1_655   S
    N1381  O1383     2.33706      .   S
    Zr72   O1383     3.28134  1_556   S
    N1381  O1384     2.33188      .   S
    Zr66   O1384     3.27587  1_556   S
    N1381  O1385     2.33706      .   S
    Zr10   O1385     3.28134  1_655   S
    N1386  O1387     2.32511      .   S
    Zr13   O1387     3.27005      .   S
    N1386  O1388     2.30416      .   S
    Zr198  O1388     3.24798      .   S
    N1386  O1389     2.32521      .   S
    Zr89   O1389     3.27014      .   S
    N1386  O1390     2.30416      .   S
    Zr199  O1390     3.24798      .   S
    N1391  O1392     2.34963      .   S
    Zr88   O1392     3.30027      .   S
    N1391  O1393     2.32654      .   S
    Zr150  O1393     3.27026      .   S
    N1391  O1394     2.34264      .   S
    Zr174  O1394     3.28780      .   S
    N1391  O1395     2.32484      .   S
    Zr199  O1395     3.26559      .   S
    N1396  O1397     2.29770      .   S
    Zr43   O1397     3.23065      .   S
    N1396  O1398     2.30067      .   S
    Zr117  O1398     3.23557      .   S
    N1396  O1399     2.29774      .   S
    Zr63   O1399     3.23078      .   S
    N1396  O1400     2.30065      .   S
    Zr110  O1400     3.23556      .   S
    N1401  O1402     2.32650      .   S
    Zr140  O1402     3.27039      .   S
    N1401  O1403     2.34259      .   S
    Zr178  O1403     3.28775      .   S
    N1401  O1404     2.32476      .   S
    Zr202  O1404     3.26562      .   S
    N1401  O1405     2.34965      .   S
    Zr20   O1405     3.30030      .   S
    N1406  O1407     2.32511      .   S
    Zr21   O1407     3.27005      .   S
    N1406  O1408     2.30416      .   S
    Zr202  O1408     3.24798      .   S
    N1406  O1409     2.32521      .   S
    Zr83   O1409     3.27014      .   S
    N1406  O1410     2.30416      .   S
    Zr203  O1410     3.24798      .   S
    N1411  O1412     2.30196      .   S
    Zr254  O1412     3.23749      .   S
    N1411  O1413     2.32789      .   S
    Zr43   O1413     3.27027      .   S
    N1411  O1414     2.32774      .   S
    Zr67   O1414     3.26982      .   S
    N1411  O1415     2.30181      .   S
    Zr258  O1415     3.23705      .   S
    N1416  O1417     2.30192      .   S
    Zr258  O1417     3.23736      .   S
    N1416  O1418     2.32784      .   S
    Zr63   O1418     3.27010      .   S
    N1416  O1419     2.30192      .   S
    Zr244  O1419     3.23736      .   S
    N1416  O1420     2.32784      .   S
    Zr29   O1420     3.27010      .   S
    N1421  O1422     2.32484      .   S
    Zr203  O1422     3.26559      .   S
    N1421  O1423     2.34963      .   S
    Zr82   O1423     3.30027      .   S
    N1421  O1424     2.32654      .   S
    Zr158  O1424     3.27026      .   S
    N1421  O1425     2.34264      .   S
    Zr178  O1425     3.28780      .   S
    N1426  O1427     2.29763      .   S
    Zr57   O1427     3.23037      .   S
    N1426  O1428     2.30063      .   S
    Zr109  O1428     3.23554      .   S
    N1426  O1429     2.29763      .   S
    Zr47   O1429     3.23037      .   S
    N1426  O1430     2.30063      .   S
    Zr119  O1430     3.23554      .   S
    N1431  O1432     2.34963      .   S
    Zr72   O1432     3.30028      .   S
    N1431  O1433     2.32655      .   S
    Zr162  O1433     3.27022      .   S
    N1431  O1434     2.34265      .   S
    Zr168  O1434     3.28780      .   S
    N1431  O1435     2.32481      .   S
    Zr192  O1435     3.26560      .   S
    N1436  O1437     2.34965      .   S
    Zr80   O1437     3.30030      .   S
    N1436  O1438     2.32650      .   S
    Zr152  O1438     3.27039      .   S
    N1436  O1439     2.34259      .   S
    Zr178  O1439     3.28775      .   S
    N1436  O1440     2.32476      .   S
    Zr202  O1440     3.26562      .   S
    N1441  O1442     2.32511      .   S
    Zr81   O1442     3.27005      .   S
    N1441  O1443     2.30416      .   S
    Zr202  O1443     3.24798      .   S
    N1441  O1444     2.32521      .   S
    Zr23   O1444     3.27014      .   S
    N1441  O1445     2.30416      .   S
    Zr203  O1445     3.24798      .   S
    N1446  O1447     2.28599      .   S
    Zr81   O1447     3.22032      .   S
    N1446  O1448     2.30731      .   S
    Zr238  O1448     3.23937      .   S
    N1446  O1449     2.25950      .   S
    Zr152  O1449     3.18208      .   S
    N1446  O1450     2.33682      .   S
    Zr56   O1450     3.28120      .   S
    N1451  O1452     2.32655      .   S
    Zr122  O1452     3.27022      .   S
    N1451  O1453     2.34265      .   S
    Zr190  O1453     3.28780  1_554   S
    N1451  O1454     2.32481      .   S
    Zr214  O1454     3.26560      .   S
    N1451  O1455     2.34963      .   S
    Zr44   O1455     3.30028      .   S
    N1456  O1457     2.34963      .   S
    Zr66   O1457     3.30028      .   S
    N1456  O1458     2.32655      .   S
    Zr162  O1458     3.27022      .   S
    N1456  O1459     2.34265      .   S
    Zr186  O1459     3.28780  1_554   S
    N1456  O1460     2.32481      .   S
    Zr210  O1460     3.26560      .   S
    N1461  O1462     2.32516      .   S
    Zr57   O1462     3.27009      .   S
    N1461  O1463     2.30416      .   S
    Zr214  O1463     3.24798  1_545   S
    N1461  O1464     2.32516      .   S
    Zr47   O1464     3.27009      .   S
    N1461  O1465     2.30416      .   S
    Zr215  O1465     3.24798  1_554   S
    N1466  O1467     2.34264      .   S
    Zr178  O1467     3.28780      .   S
    N1466  O1468     2.32484      .   S
    Zr203  O1468     3.26559      .   S
    N1466  O1469     2.34963      .   S
    Zr22   O1469     3.30027      .   S
    N1466  O1470     2.32654      .   S
    Zr142  O1470     3.27026      .   S
    N1471  O1472     2.30193      .   S
    Zr242  O1472     3.23739      .   S
    N1471  O1473     2.32786      .   S
    Zr57   O1473     3.27016      .   S
    N1471  O1474     2.30193      .   S
    Zr262  O1474     3.23739      .   S
    N1471  O1475     2.32786      .   S
    Zr27   O1475     3.27016      .   S
    N1476  O1477     2.34970      .   S
    Zr56   O1477     3.30035      .   S
    N1476  O1478     2.32649      .   S
    Zr152  O1478     3.27041      .   S
    N1476  O1479     2.34259      .   S
    Zr190  O1479     3.28774  1_554   S
    N1476  O1480     2.32462      .   S
    Zr214  O1480     3.26566      .   S
    N1481  O1482     2.33682      .   S
    Zr72   O1482     3.28120      .   S
    N1481  O1483     2.30731  1_455   S
    Zr254  O1483     3.23920      .   S
    N1481  O1484     2.28599  1_455   S
    Zr67   O1484     3.22048      .   S
    N1481  O1485     2.25944      .   S
    Zr162  O1485     3.18214      .   S
    N1486  O1487     2.33682      .   S
    Zr80   O1487     3.28120      .   S
    N1486  O1488     2.30731  1_545   S
    Zr262  O1488     3.23930      .   S
    N1486  O1489     2.28599  1_545   S
    Zr57   O1489     3.22071      .   S
    N1486  O1490     2.25949      .   S
    Zr152  O1490     3.18210      .   S
    N1491  O1492     2.29763      .   S
    Zr49   O1492     3.23037      .   S
    N1491  O1493     2.30063      .   S
    Zr114  O1493     3.23554      .   S
    N1491  O1494     2.29763      .   S
    Zr27   O1494     3.23037      .   S
    N1491  O1495     2.30063      .   S
    Zr109  O1495     3.23554      .   S
