# generated using pymatgen
data_Cr3H12C24O13
_symmetry_space_group_name_H-M   'P 1'
_cell_length_a   62.83990000
_cell_length_b   62.83990000
_cell_length_c   62.83990000
_cell_angle_alpha   60.00000000
_cell_angle_beta   60.00000000
_cell_angle_gamma   60.00000000
_symmetry_Int_Tables_number   1
_chemical_formula_structural   Cr3H12C24O13
_chemical_formula_sum   'Cr204 H816 C1632 O884'
_cell_volume   175465.38673396
_cell_formula_units_Z   68
loop_
 _symmetry_equiv_pos_site_id
 _symmetry_equiv_pos_as_xyz
  1  'x, y, z'
loop_
 _atom_site_type_symbol
 _atom_site_label
 _atom_site_symmetry_multiplicity
 _atom_site_fract_x
 _atom_site_fract_y
 _atom_site_fract_z
 _atom_site_occupancy
  Cr  Cr0  1  0.05577000  0.34230000  0.88577000  1.0
  Cr  Cr1  1  0.19653000  0.46966000  0.69344000  1.0
  Cr  Cr2  1  0.34230000  0.05577000  0.71616000  1.0
  Cr  Cr3  1  0.46967000  0.19652000  0.64037000  1.0
  Cr  Cr4  1  0.71616000  0.88577000  0.34230000  1.0
  Cr  Cr5  1  0.64038000  0.69344000  0.46966000  1.0
  Cr  Cr6  1  0.88577000  0.71616000  0.05577000  1.0
  Cr  Cr7  1  0.69345000  0.64037000  0.19652000  1.0
  Cr  Cr8  1  0.05577000  0.71616000  0.34230000  1.0
  Cr  Cr9  1  0.19653000  0.64037000  0.46966000  1.0
  Cr  Cr10  1  0.34230000  0.88577000  0.05577000  1.0
  Cr  Cr11  1  0.46967000  0.69344000  0.19652000  1.0
  Cr  Cr12  1  0.71616000  0.05577000  0.88577000  1.0
  Cr  Cr13  1  0.64038000  0.19652000  0.69344000  1.0
  Cr  Cr14  1  0.88577000  0.34230000  0.71616000  1.0
  Cr  Cr15  1  0.69345000  0.46966000  0.64037000  1.0
  Cr  Cr16  1  0.05577000  0.88577000  0.71616000  1.0
  Cr  Cr17  1  0.19653000  0.69344000  0.64037000  1.0
  Cr  Cr18  1  0.34230000  0.71616000  0.88577000  1.0
  Cr  Cr19  1  0.46967000  0.64037000  0.69344000  1.0
  Cr  Cr20  1  0.71616000  0.34230000  0.05577000  1.0
  Cr  Cr21  1  0.64038000  0.46966000  0.19652000  1.0
  Cr  Cr22  1  0.88577000  0.05577000  0.34230000  1.0
  Cr  Cr23  1  0.69345000  0.19652000  0.46966000  1.0
  Cr  Cr24  1  0.40770000  0.69423000  0.86423000  1.0
  Cr  Cr25  1  0.28033000  0.55348000  0.05656000  1.0
  Cr  Cr26  1  0.69423000  0.40770000  0.03384000  1.0
  Cr  Cr27  1  0.55347000  0.28034000  0.10963000  1.0
  Cr  Cr28  1  0.86423000  0.03384000  0.40770000  1.0
  Cr  Cr29  1  0.05655000  0.10963000  0.28034000  1.0
  Cr  Cr30  1  0.03384000  0.86423000  0.69423000  1.0
  Cr  Cr31  1  0.10962000  0.05656000  0.55348000  1.0
  Cr  Cr32  1  0.03384000  0.69423000  0.40770000  1.0
  Cr  Cr33  1  0.10962000  0.55348000  0.28034000  1.0
  Cr  Cr34  1  0.86423000  0.40770000  0.69423000  1.0
  Cr  Cr35  1  0.05655000  0.28034000  0.55348000  1.0
  Cr  Cr36  1  0.69423000  0.03384000  0.86423000  1.0
  Cr  Cr37  1  0.55347000  0.10963000  0.05656000  1.0
  Cr  Cr38  1  0.40770000  0.86423000  0.03384000  1.0
  Cr  Cr39  1  0.28033000  0.05656000  0.10963000  1.0
  Cr  Cr40  1  0.86423000  0.69423000  0.03384000  1.0
  Cr  Cr41  1  0.05655000  0.55348000  0.10963000  1.0
  Cr  Cr42  1  0.03384000  0.40770000  0.86423000  1.0
  Cr  Cr43  1  0.10962000  0.28034000  0.05656000  1.0
  Cr  Cr44  1  0.40770000  0.03384000  0.69423000  1.0
  Cr  Cr45  1  0.28033000  0.10963000  0.55348000  1.0
  Cr  Cr46  1  0.69423000  0.86423000  0.40770000  1.0
  Cr  Cr47  1  0.55347000  0.05656000  0.28034000  1.0
  Cr  Cr48  1  0.69423000  0.40770000  0.86423000  1.0
  Cr  Cr49  1  0.55347000  0.28034000  0.05656000  1.0
  Cr  Cr50  1  0.40770000  0.69423000  0.03384000  1.0
  Cr  Cr51  1  0.28033000  0.55348000  0.10963000  1.0
  Cr  Cr52  1  0.03384000  0.86423000  0.40770000  1.0
  Cr  Cr53  1  0.10962000  0.05656000  0.28034000  1.0
  Cr  Cr54  1  0.86423000  0.03384000  0.69423000  1.0
  Cr  Cr55  1  0.05655000  0.10963000  0.55348000  1.0
  Cr  Cr56  1  0.69423000  0.03384000  0.40770000  1.0
  Cr  Cr57  1  0.55347000  0.10963000  0.28034000  1.0
  Cr  Cr58  1  0.40770000  0.86423000  0.69423000  1.0
  Cr  Cr59  1  0.28033000  0.05656000  0.55348000  1.0
  Cr  Cr60  1  0.03384000  0.69423000  0.86423000  1.0
  Cr  Cr61  1  0.10962000  0.55348000  0.05656000  1.0
  Cr  Cr62  1  0.86423000  0.40770000  0.03384000  1.0
  Cr  Cr63  1  0.05655000  0.28034000  0.10963000  1.0
  Cr  Cr64  1  0.69423000  0.86423000  0.03384000  1.0
  Cr  Cr65  1  0.55347000  0.05656000  0.10963000  1.0
  Cr  Cr66  1  0.40770000  0.03384000  0.86423000  1.0
  Cr  Cr67  1  0.28033000  0.10963000  0.05656000  1.0
  Cr  Cr68  1  0.03384000  0.40770000  0.69423000  1.0
  Cr  Cr69  1  0.10962000  0.28034000  0.55348000  1.0
  Cr  Cr70  1  0.86423000  0.69423000  0.40770000  1.0
  Cr  Cr71  1  0.05655000  0.55348000  0.28034000  1.0
  Cr  Cr72  1  0.34230000  0.05577000  0.88577000  1.0
  Cr  Cr73  1  0.46967000  0.19652000  0.69344000  1.0
  Cr  Cr74  1  0.05577000  0.34230000  0.71616000  1.0
  Cr  Cr75  1  0.19653000  0.46966000  0.64037000  1.0
  Cr  Cr76  1  0.88577000  0.71616000  0.34230000  1.0
  Cr  Cr77  1  0.69345000  0.64037000  0.46966000  1.0
  Cr  Cr78  1  0.71616000  0.88577000  0.05577000  1.0
  Cr  Cr79  1  0.64038000  0.69344000  0.19652000  1.0
  Cr  Cr80  1  0.71616000  0.05577000  0.34230000  1.0
  Cr  Cr81  1  0.64038000  0.19652000  0.46966000  1.0
  Cr  Cr82  1  0.88577000  0.34230000  0.05577000  1.0
  Cr  Cr83  1  0.69345000  0.46966000  0.19652000  1.0
  Cr  Cr84  1  0.05577000  0.71616000  0.88577000  1.0
  Cr  Cr85  1  0.19653000  0.64037000  0.69344000  1.0
  Cr  Cr86  1  0.34230000  0.88577000  0.71616000  1.0
  Cr  Cr87  1  0.46967000  0.69344000  0.64037000  1.0
  Cr  Cr88  1  0.88577000  0.05577000  0.71616000  1.0
  Cr  Cr89  1  0.69345000  0.19652000  0.64037000  1.0
  Cr  Cr90  1  0.71616000  0.34230000  0.88577000  1.0
  Cr  Cr91  1  0.64038000  0.46966000  0.69344000  1.0
  Cr  Cr92  1  0.34230000  0.71616000  0.05577000  1.0
  Cr  Cr93  1  0.46967000  0.64037000  0.19652000  1.0
  Cr  Cr94  1  0.05577000  0.88577000  0.34230000  1.0
  Cr  Cr95  1  0.19653000  0.69344000  0.46966000  1.0
  Cr  Cr96  1  0.36250000  0.52815000  0.58120000  1.0
  Cr  Cr97  1  0.52815000  0.36250000  0.52815000  1.0
  Cr  Cr98  1  0.52815000  0.58120000  0.52815000  1.0
  Cr  Cr99  1  0.58120000  0.52815000  0.36250000  1.0
  Cr  Cr100  1  0.36250000  0.52815000  0.52815000  1.0
  Cr  Cr101  1  0.52815000  0.58120000  0.36250000  1.0
  Cr  Cr102  1  0.52815000  0.36250000  0.58120000  1.0
  Cr  Cr103  1  0.58120000  0.52815000  0.52815000  1.0
  Cr  Cr104  1  0.36250000  0.58120000  0.52815000  1.0
  Cr  Cr105  1  0.52815000  0.52815000  0.58120000  1.0
  Cr  Cr106  1  0.52815000  0.52815000  0.36250000  1.0
  Cr  Cr107  1  0.58120000  0.36250000  0.52815000  1.0
  Cr  Cr108  1  0.22185000  0.38750000  0.16880000  1.0
  Cr  Cr109  1  0.38750000  0.22185000  0.22185000  1.0
  Cr  Cr110  1  0.16880000  0.22185000  0.22185000  1.0
  Cr  Cr111  1  0.22185000  0.16880000  0.38750000  1.0
  Cr  Cr112  1  0.22185000  0.38750000  0.22185000  1.0
  Cr  Cr113  1  0.16880000  0.22185000  0.38750000  1.0
  Cr  Cr114  1  0.38750000  0.22185000  0.16880000  1.0
  Cr  Cr115  1  0.22185000  0.16880000  0.22185000  1.0
  Cr  Cr116  1  0.16880000  0.38750000  0.22185000  1.0
  Cr  Cr117  1  0.22185000  0.22185000  0.16880000  1.0
  Cr  Cr118  1  0.22185000  0.22185000  0.38750000  1.0
  Cr  Cr119  1  0.38750000  0.16880000  0.22185000  1.0
  Cr  Cr120  1  0.09065000  0.37500000  0.87500000  1.0
  Cr  Cr121  1  0.37500000  0.09065000  0.65935000  1.0
  Cr  Cr122  1  0.65935000  0.87500000  0.37500000  1.0
  Cr  Cr123  1  0.87500000  0.65935000  0.09065000  1.0
  Cr  Cr124  1  0.09065000  0.65935000  0.37500000  1.0
  Cr  Cr125  1  0.37500000  0.87500000  0.09065000  1.0
  Cr  Cr126  1  0.65935000  0.09065000  0.87500000  1.0
  Cr  Cr127  1  0.87500000  0.37500000  0.65935000  1.0
  Cr  Cr128  1  0.09065000  0.87500000  0.65935000  1.0
  Cr  Cr129  1  0.37500000  0.65935000  0.87500000  1.0
  Cr  Cr130  1  0.65935000  0.37500000  0.09065000  1.0
  Cr  Cr131  1  0.87500000  0.09065000  0.37500000  1.0
  Cr  Cr132  1  0.65935000  0.37500000  0.87500000  1.0
  Cr  Cr133  1  0.37500000  0.65935000  0.09065000  1.0
  Cr  Cr134  1  0.09065000  0.87500000  0.37500000  1.0
  Cr  Cr135  1  0.87500000  0.09065000  0.65935000  1.0
  Cr  Cr136  1  0.65935000  0.09065000  0.37500000  1.0
  Cr  Cr137  1  0.37500000  0.87500000  0.65935000  1.0
  Cr  Cr138  1  0.09065000  0.65935000  0.87500000  1.0
  Cr  Cr139  1  0.87500000  0.37500000  0.09065000  1.0
  Cr  Cr140  1  0.65935000  0.87500000  0.09065000  1.0
  Cr  Cr141  1  0.37500000  0.09065000  0.87500000  1.0
  Cr  Cr142  1  0.09065000  0.37500000  0.65935000  1.0
  Cr  Cr143  1  0.87500000  0.65935000  0.37500000  1.0
  Cr  Cr144  1  0.22983000  0.22983000  0.77017000  1.0
  Cr  Cr145  1  0.77017000  0.77017000  0.22983000  1.0
  Cr  Cr146  1  0.22983000  0.77017000  0.22983000  1.0
  Cr  Cr147  1  0.77017000  0.22983000  0.77017000  1.0
  Cr  Cr148  1  0.22983000  0.77017000  0.77017000  1.0
  Cr  Cr149  1  0.77017000  0.22983000  0.22983000  1.0
  Cr  Cr150  1  0.52017000  0.52017000  0.97983000  1.0
  Cr  Cr151  1  0.97983000  0.97983000  0.52017000  1.0
  Cr  Cr152  1  0.97983000  0.52017000  0.52017000  1.0
  Cr  Cr153  1  0.52017000  0.97983000  0.97983000  1.0
  Cr  Cr154  1  0.97983000  0.52017000  0.97983000  1.0
  Cr  Cr155  1  0.52017000  0.97983000  0.52017000  1.0
  Cr  Cr156  1  0.26244000  0.26244000  0.76408000  1.0
  Cr  Cr157  1  0.26244000  0.26244000  0.71104000  1.0
  Cr  Cr158  1  0.71104000  0.76408000  0.26244000  1.0
  Cr  Cr159  1  0.76408000  0.71104000  0.26244000  1.0
  Cr  Cr160  1  0.26244000  0.71104000  0.26244000  1.0
  Cr  Cr161  1  0.26244000  0.76408000  0.26244000  1.0
  Cr  Cr162  1  0.71104000  0.26244000  0.76408000  1.0
  Cr  Cr163  1  0.76408000  0.26244000  0.71104000  1.0
  Cr  Cr164  1  0.26244000  0.76408000  0.71104000  1.0
  Cr  Cr165  1  0.26244000  0.71104000  0.76408000  1.0
  Cr  Cr166  1  0.71104000  0.26244000  0.26244000  1.0
  Cr  Cr167  1  0.76408000  0.26244000  0.26244000  1.0
  Cr  Cr168  1  0.48756000  0.48756000  0.98592000  1.0
  Cr  Cr169  1  0.48756000  0.48756000  0.03896000  1.0
  Cr  Cr170  1  0.98592000  0.03896000  0.48756000  1.0
  Cr  Cr171  1  0.03896000  0.98592000  0.48756000  1.0
  Cr  Cr172  1  0.03896000  0.48756000  0.48756000  1.0
  Cr  Cr173  1  0.98592000  0.48756000  0.48756000  1.0
  Cr  Cr174  1  0.48756000  0.03896000  0.98592000  1.0
  Cr  Cr175  1  0.48756000  0.98592000  0.03896000  1.0
  Cr  Cr176  1  0.98592000  0.48756000  0.03896000  1.0
  Cr  Cr177  1  0.03896000  0.48756000  0.98592000  1.0
  Cr  Cr178  1  0.48756000  0.03896000  0.48756000  1.0
  Cr  Cr179  1  0.48756000  0.98592000  0.48756000  1.0
  Cr  Cr180  1  0.14433000  0.50715000  0.67426000  1.0
  Cr  Cr181  1  0.50714000  0.14434000  0.67426000  1.0
  Cr  Cr182  1  0.67425000  0.67426000  0.50715000  1.0
  Cr  Cr183  1  0.67425000  0.67426000  0.14434000  1.0
  Cr  Cr184  1  0.14433000  0.67426000  0.50715000  1.0
  Cr  Cr185  1  0.50714000  0.67426000  0.14434000  1.0
  Cr  Cr186  1  0.67425000  0.14434000  0.67426000  1.0
  Cr  Cr187  1  0.67425000  0.50715000  0.67426000  1.0
  Cr  Cr188  1  0.14433000  0.67426000  0.67426000  1.0
  Cr  Cr189  1  0.50714000  0.67426000  0.67426000  1.0
  Cr  Cr190  1  0.67425000  0.50715000  0.14434000  1.0
  Cr  Cr191  1  0.67425000  0.14434000  0.50715000  1.0
  Cr  Cr192  1  0.24286000  0.60566000  0.07574000  1.0
  Cr  Cr193  1  0.60567000  0.24285000  0.07574000  1.0
  Cr  Cr194  1  0.07575000  0.07574000  0.24285000  1.0
  Cr  Cr195  1  0.07575000  0.07574000  0.60566000  1.0
  Cr  Cr196  1  0.07575000  0.60566000  0.24285000  1.0
  Cr  Cr197  1  0.07575000  0.24285000  0.60566000  1.0
  Cr  Cr198  1  0.60567000  0.07574000  0.07574000  1.0
  Cr  Cr199  1  0.24286000  0.07574000  0.07574000  1.0
  Cr  Cr200  1  0.07575000  0.60566000  0.07574000  1.0
  Cr  Cr201  1  0.07575000  0.24285000  0.07574000  1.0
  Cr  Cr202  1  0.24286000  0.07574000  0.60566000  1.0
  Cr  Cr203  1  0.60567000  0.07574000  0.24285000  1.0
  H  H204  1  0.42253000  0.46098000  0.59271000  1.0
  H  H205  1  0.26486000  0.48468000  0.65963000  1.0
  H  H206  1  0.30251000  0.49927000  0.63351000  1.0
  H  H207  1  0.13423000  0.57446000  0.67826000  1.0
  H  H208  1  0.20366000  0.52869000  0.70001000  1.0
  H  H209  1  0.04935000  0.33302000  0.82824000  1.0
  H  H210  1  0.02082000  0.41710000  0.80050000  1.0
  H  H211  1  0.11802000  0.29151000  0.84421000  1.0
  H  H212  1  0.15796000  0.26443000  0.82002000  1.0
  H  H213  1  0.16182000  0.33302000  0.83433000  1.0
  H  H214  1  0.20152000  0.30606000  0.81039000  1.0
  H  H215  1  0.22439000  0.38910000  0.72758000  1.0
  H  H216  1  0.24049000  0.34165000  0.74335000  1.0
  H  H217  1  0.09197000  0.47592000  0.68941000  1.0
  H  H218  1  0.06625000  0.45310000  0.69517000  1.0
  H  H219  1  0.15637000  0.44105000  0.63186000  1.0
  H  H220  1  0.13102000  0.41869000  0.63740000  1.0
  H  H221  1  0.46098000  0.42253000  0.52378000  1.0
  H  H222  1  0.48469000  0.26485000  0.59083000  1.0
  H  H223  1  0.49927000  0.30251000  0.56471000  1.0
  H  H224  1  0.57446000  0.13423000  0.61305000  1.0
  H  H225  1  0.52869000  0.20366000  0.56764000  1.0
  H  H226  1  0.33301000  0.04936000  0.78939000  1.0
  H  H227  1  0.41710000  0.02082000  0.76158000  1.0
  H  H228  1  0.29152000  0.11801000  0.74626000  1.0
  H  H229  1  0.26442000  0.15797000  0.75759000  1.0
  H  H230  1  0.33303000  0.16181000  0.67083000  1.0
  H  H231  1  0.30607000  0.20151000  0.68203000  1.0
  H  H232  1  0.38910000  0.22439000  0.65893000  1.0
  H  H233  1  0.34165000  0.24049000  0.67451000  1.0
  H  H234  1  0.47591000  0.09198000  0.74270000  1.0
  H  H235  1  0.45311000  0.06624000  0.78548000  1.0
  H  H236  1  0.44105000  0.15637000  0.77072000  1.0
  H  H237  1  0.41869000  0.13102000  0.81289000  1.0
  H  H238  1  0.52378000  0.59271000  0.46098000  1.0
  H  H239  1  0.59084000  0.65963000  0.48468000  1.0
  H  H240  1  0.56471000  0.63351000  0.49927000  1.0
  H  H241  1  0.61305000  0.67826000  0.57446000  1.0
  H  H242  1  0.56764000  0.70001000  0.52869000  1.0
  H  H243  1  0.78938000  0.82824000  0.33302000  1.0
  H  H244  1  0.76158000  0.80050000  0.41710000  1.0
  H  H245  1  0.74627000  0.84421000  0.29151000  1.0
  H  H246  1  0.75758000  0.82002000  0.26443000  1.0
  H  H247  1  0.67084000  0.83433000  0.33302000  1.0
  H  H248  1  0.68204000  0.81039000  0.30606000  1.0
  H  H249  1  0.65893000  0.72758000  0.38910000  1.0
  H  H250  1  0.67451000  0.74335000  0.34165000  1.0
  H  H251  1  0.74269000  0.68941000  0.47592000  1.0
  H  H252  1  0.78549000  0.69517000  0.45310000  1.0
  H  H253  1  0.77072000  0.63186000  0.44105000  1.0
  H  H254  1  0.81289000  0.63740000  0.41869000  1.0
  H  H255  1  0.59271000  0.52378000  0.42253000  1.0
  H  H256  1  0.65964000  0.59083000  0.26485000  1.0
  H  H257  1  0.63351000  0.56471000  0.30251000  1.0
  H  H258  1  0.67826000  0.61305000  0.13423000  1.0
  H  H259  1  0.70001000  0.56764000  0.20366000  1.0
  H  H260  1  0.82823000  0.78939000  0.04936000  1.0
  H  H261  1  0.80050000  0.76158000  0.02082000  1.0
  H  H262  1  0.84422000  0.74626000  0.11801000  1.0
  H  H263  1  0.82001000  0.75759000  0.15797000  1.0
  H  H264  1  0.83434000  0.67083000  0.16181000  1.0
  H  H265  1  0.81040000  0.68203000  0.20151000  1.0
  H  H266  1  0.72758000  0.65893000  0.22439000  1.0
  H  H267  1  0.74335000  0.67451000  0.24049000  1.0
  H  H268  1  0.68940000  0.74270000  0.09198000  1.0
  H  H269  1  0.69518000  0.78548000  0.06624000  1.0
  H  H270  1  0.63186000  0.77072000  0.15637000  1.0
  H  H271  1  0.63740000  0.81289000  0.13102000  1.0
  H  H272  1  0.42253000  0.52378000  0.46098000  1.0
  H  H273  1  0.26486000  0.59083000  0.48468000  1.0
  H  H274  1  0.30251000  0.56471000  0.49927000  1.0
  H  H275  1  0.13423000  0.61305000  0.57446000  1.0
  H  H276  1  0.20366000  0.56764000  0.52869000  1.0
  H  H277  1  0.04935000  0.78939000  0.33302000  1.0
  H  H278  1  0.02082000  0.76158000  0.41710000  1.0
  H  H279  1  0.11802000  0.74626000  0.29151000  1.0
  H  H280  1  0.15796000  0.75759000  0.26443000  1.0
  H  H281  1  0.16182000  0.67083000  0.33302000  1.0
  H  H282  1  0.20152000  0.68203000  0.30606000  1.0
  H  H283  1  0.22439000  0.65893000  0.38910000  1.0
  H  H284  1  0.24049000  0.67451000  0.34165000  1.0
  H  H285  1  0.09197000  0.74270000  0.47592000  1.0
  H  H286  1  0.06625000  0.78548000  0.45310000  1.0
  H  H287  1  0.15637000  0.77072000  0.44105000  1.0
  H  H288  1  0.13102000  0.81289000  0.41869000  1.0
  H  H289  1  0.46098000  0.59271000  0.42253000  1.0
  H  H290  1  0.48469000  0.65963000  0.26485000  1.0
  H  H291  1  0.49927000  0.63351000  0.30251000  1.0
  H  H292  1  0.57446000  0.67826000  0.13423000  1.0
  H  H293  1  0.52869000  0.70001000  0.20366000  1.0
  H  H294  1  0.33301000  0.82824000  0.04936000  1.0
  H  H295  1  0.41710000  0.80050000  0.02082000  1.0
  H  H296  1  0.29152000  0.84421000  0.11801000  1.0
  H  H297  1  0.26442000  0.82002000  0.15797000  1.0
  H  H298  1  0.33303000  0.83433000  0.16181000  1.0
  H  H299  1  0.30607000  0.81039000  0.20151000  1.0
  H  H300  1  0.38910000  0.72758000  0.22439000  1.0
  H  H301  1  0.34165000  0.74335000  0.24049000  1.0
  H  H302  1  0.47591000  0.68941000  0.09198000  1.0
  H  H303  1  0.45311000  0.69517000  0.06624000  1.0
  H  H304  1  0.44105000  0.63186000  0.15637000  1.0
  H  H305  1  0.41869000  0.63740000  0.13102000  1.0
  H  H306  1  0.52378000  0.42253000  0.59271000  1.0
  H  H307  1  0.59084000  0.26485000  0.65963000  1.0
  H  H308  1  0.56471000  0.30251000  0.63351000  1.0
  H  H309  1  0.61305000  0.13423000  0.67826000  1.0
  H  H310  1  0.56764000  0.20366000  0.70001000  1.0
  H  H311  1  0.78938000  0.04936000  0.82824000  1.0
  H  H312  1  0.76158000  0.02082000  0.80050000  1.0
  H  H313  1  0.74627000  0.11801000  0.84421000  1.0
  H  H314  1  0.75758000  0.15797000  0.82002000  1.0
  H  H315  1  0.67084000  0.16181000  0.83433000  1.0
  H  H316  1  0.68204000  0.20151000  0.81039000  1.0
  H  H317  1  0.65893000  0.22439000  0.72758000  1.0
  H  H318  1  0.67451000  0.24049000  0.74335000  1.0
  H  H319  1  0.74269000  0.09198000  0.68941000  1.0
  H  H320  1  0.78549000  0.06624000  0.69517000  1.0
  H  H321  1  0.77072000  0.15637000  0.63186000  1.0
  H  H322  1  0.81289000  0.13102000  0.63740000  1.0
  H  H323  1  0.59271000  0.46098000  0.52378000  1.0
  H  H324  1  0.65964000  0.48468000  0.59083000  1.0
  H  H325  1  0.63351000  0.49927000  0.56471000  1.0
  H  H326  1  0.67826000  0.57446000  0.61305000  1.0
  H  H327  1  0.70001000  0.52869000  0.56764000  1.0
  H  H328  1  0.82823000  0.33302000  0.78939000  1.0
  H  H329  1  0.80050000  0.41710000  0.76158000  1.0
  H  H330  1  0.84422000  0.29151000  0.74626000  1.0
  H  H331  1  0.82001000  0.26443000  0.75759000  1.0
  H  H332  1  0.83434000  0.33302000  0.67083000  1.0
  H  H333  1  0.81040000  0.30606000  0.68203000  1.0
  H  H334  1  0.72758000  0.38910000  0.65893000  1.0
  H  H335  1  0.74335000  0.34165000  0.67451000  1.0
  H  H336  1  0.68940000  0.47592000  0.74270000  1.0
  H  H337  1  0.69518000  0.45310000  0.78548000  1.0
  H  H338  1  0.63186000  0.44105000  0.77072000  1.0
  H  H339  1  0.63740000  0.41869000  0.81289000  1.0
  H  H340  1  0.42253000  0.59271000  0.52378000  1.0
  H  H341  1  0.26486000  0.65963000  0.59083000  1.0
  H  H342  1  0.30251000  0.63351000  0.56471000  1.0
  H  H343  1  0.13423000  0.67826000  0.61305000  1.0
  H  H344  1  0.20366000  0.70001000  0.56764000  1.0
  H  H345  1  0.04935000  0.82824000  0.78939000  1.0
  H  H346  1  0.02082000  0.80050000  0.76158000  1.0
  H  H347  1  0.11802000  0.84421000  0.74626000  1.0
  H  H348  1  0.15796000  0.82002000  0.75759000  1.0
  H  H349  1  0.16182000  0.83433000  0.67083000  1.0
  H  H350  1  0.20152000  0.81039000  0.68203000  1.0
  H  H351  1  0.22439000  0.72758000  0.65893000  1.0
  H  H352  1  0.24049000  0.74335000  0.67451000  1.0
  H  H353  1  0.09197000  0.68941000  0.74270000  1.0
  H  H354  1  0.06625000  0.69517000  0.78548000  1.0
  H  H355  1  0.15637000  0.63186000  0.77072000  1.0
  H  H356  1  0.13102000  0.63740000  0.81289000  1.0
  H  H357  1  0.46098000  0.52378000  0.59271000  1.0
  H  H358  1  0.48469000  0.59083000  0.65963000  1.0
  H  H359  1  0.49927000  0.56471000  0.63351000  1.0
  H  H360  1  0.57446000  0.61305000  0.67826000  1.0
  H  H361  1  0.52869000  0.56764000  0.70001000  1.0
  H  H362  1  0.33301000  0.78939000  0.82824000  1.0
  H  H363  1  0.41710000  0.76158000  0.80050000  1.0
  H  H364  1  0.29152000  0.74626000  0.84421000  1.0
  H  H365  1  0.26442000  0.75759000  0.82002000  1.0
  H  H366  1  0.33303000  0.67083000  0.83433000  1.0
  H  H367  1  0.30607000  0.68203000  0.81039000  1.0
  H  H368  1  0.38910000  0.65893000  0.72758000  1.0
  H  H369  1  0.34165000  0.67451000  0.74335000  1.0
  H  H370  1  0.47591000  0.74270000  0.68941000  1.0
  H  H371  1  0.45311000  0.78548000  0.69517000  1.0
  H  H372  1  0.44105000  0.77072000  0.63186000  1.0
  H  H373  1  0.41869000  0.81289000  0.63740000  1.0
  H  H374  1  0.52378000  0.46098000  0.42253000  1.0
  H  H375  1  0.59084000  0.48468000  0.26485000  1.0
  H  H376  1  0.56471000  0.49927000  0.30251000  1.0
  H  H377  1  0.61305000  0.57446000  0.13423000  1.0
  H  H378  1  0.56764000  0.52869000  0.20366000  1.0
  H  H379  1  0.78938000  0.33302000  0.04936000  1.0
  H  H380  1  0.76158000  0.41710000  0.02082000  1.0
  H  H381  1  0.74627000  0.29151000  0.11801000  1.0
  H  H382  1  0.75758000  0.26443000  0.15797000  1.0
  H  H383  1  0.67084000  0.33302000  0.16181000  1.0
  H  H384  1  0.68204000  0.30606000  0.20151000  1.0
  H  H385  1  0.65893000  0.38910000  0.22439000  1.0
  H  H386  1  0.67451000  0.34165000  0.24049000  1.0
  H  H387  1  0.74269000  0.47592000  0.09198000  1.0
  H  H388  1  0.78549000  0.45310000  0.06624000  1.0
  H  H389  1  0.77072000  0.44105000  0.15637000  1.0
  H  H390  1  0.81289000  0.41869000  0.13102000  1.0
  H  H391  1  0.59271000  0.42253000  0.46098000  1.0
  H  H392  1  0.65964000  0.26485000  0.48468000  1.0
  H  H393  1  0.63351000  0.30251000  0.49927000  1.0
  H  H394  1  0.67826000  0.13423000  0.57446000  1.0
  H  H395  1  0.70001000  0.20366000  0.52869000  1.0
  H  H396  1  0.82823000  0.04936000  0.33302000  1.0
  H  H397  1  0.80050000  0.02082000  0.41710000  1.0
  H  H398  1  0.84422000  0.11801000  0.29151000  1.0
  H  H399  1  0.82001000  0.15797000  0.26443000  1.0
  H  H400  1  0.83434000  0.16181000  0.33302000  1.0
  H  H401  1  0.81040000  0.20151000  0.30606000  1.0
  H  H402  1  0.72758000  0.22439000  0.38910000  1.0
  H  H403  1  0.74335000  0.24049000  0.34165000  1.0
  H  H404  1  0.68940000  0.09198000  0.47592000  1.0
  H  H405  1  0.69518000  0.06624000  0.45310000  1.0
  H  H406  1  0.63186000  0.15637000  0.44105000  1.0
  H  H407  1  0.63740000  0.13102000  0.41869000  1.0
  H  H408  1  0.28902000  0.32747000  0.15729000  1.0
  H  H409  1  0.26531000  0.48515000  0.09037000  1.0
  H  H410  1  0.25073000  0.44749000  0.11649000  1.0
  H  H411  1  0.17554000  0.61577000  0.07174000  1.0
  H  H412  1  0.22131000  0.54634000  0.04999000  1.0
  H  H413  1  0.41699000  0.70064000  0.92176000  1.0
  H  H414  1  0.33290000  0.72918000  0.94950000  1.0
  H  H415  1  0.45848000  0.63199000  0.90579000  1.0
  H  H416  1  0.48558000  0.59203000  0.92998000  1.0
  H  H417  1  0.41697000  0.58819000  0.91567000  1.0
  H  H418  1  0.44393000  0.54849000  0.93961000  1.0
  H  H419  1  0.36090000  0.52561000  0.02242000  1.0
  H  H420  1  0.40835000  0.50951000  0.00665000  1.0
  H  H421  1  0.27409000  0.65802000  0.06059000  1.0
  H  H422  1  0.29689000  0.68376000  0.05483000  1.0
  H  H423  1  0.30895000  0.59363000  0.11814000  1.0
  H  H424  1  0.33131000  0.61898000  0.11260000  1.0
  H  H425  1  0.32747000  0.28902000  0.22622000  1.0
  H  H426  1  0.48514000  0.26532000  0.15917000  1.0
  H  H427  1  0.44749000  0.25073000  0.18529000  1.0
  H  H428  1  0.61577000  0.17554000  0.13695000  1.0
  H  H429  1  0.54634000  0.22131000  0.18236000  1.0
  H  H430  1  0.70065000  0.41698000  0.96061000  1.0
  H  H431  1  0.72918000  0.33290000  0.98842000  1.0
  H  H432  1  0.63198000  0.45849000  0.00374000  1.0
  H  H433  1  0.59204000  0.48557000  0.99241000  1.0
  H  H434  1  0.58818000  0.41698000  0.07917000  1.0
  H  H435  1  0.54848000  0.44394000  0.06797000  1.0
  H  H436  1  0.52561000  0.36090000  0.09107000  1.0
  H  H437  1  0.50951000  0.40835000  0.07549000  1.0
  H  H438  1  0.65803000  0.27408000  0.00730000  1.0
  H  H439  1  0.68375000  0.29690000  0.96452000  1.0
  H  H440  1  0.59363000  0.30895000  0.97928000  1.0
  H  H441  1  0.61898000  0.33131000  0.93711000  1.0
  H  H442  1  0.15729000  0.22622000  0.28902000  1.0
  H  H443  1  0.09036000  0.15917000  0.26532000  1.0
  H  H444  1  0.11649000  0.18529000  0.25073000  1.0
  H  H445  1  0.07174000  0.13695000  0.17554000  1.0
  H  H446  1  0.04999000  0.18236000  0.22131000  1.0
  H  H447  1  0.92177000  0.96061000  0.41698000  1.0
  H  H448  1  0.94950000  0.98842000  0.33290000  1.0
  H  H449  1  0.90578000  0.00374000  0.45849000  1.0
  H  H450  1  0.92999000  0.99241000  0.48557000  1.0
  H  H451  1  0.91566000  0.07917000  0.41698000  1.0
  H  H452  1  0.93960000  0.06797000  0.44394000  1.0
  H  H453  1  0.02242000  0.09107000  0.36090000  1.0
  H  H454  1  0.00665000  0.07549000  0.40835000  1.0
  H  H455  1  0.06060000  0.00730000  0.27408000  1.0
  H  H456  1  0.05482000  0.96452000  0.29690000  1.0
  H  H457  1  0.11814000  0.97928000  0.30895000  1.0
  H  H458  1  0.11260000  0.93711000  0.33131000  1.0
  H  H459  1  0.22622000  0.15729000  0.32747000  1.0
  H  H460  1  0.15916000  0.09037000  0.48515000  1.0
  H  H461  1  0.18529000  0.11649000  0.44749000  1.0
  H  H462  1  0.13695000  0.07174000  0.61577000  1.0
  H  H463  1  0.18236000  0.04999000  0.54634000  1.0
  H  H464  1  0.96062000  0.92176000  0.70064000  1.0
  H  H465  1  0.98842000  0.94950000  0.72918000  1.0
  H  H466  1  0.00373000  0.90579000  0.63199000  1.0
  H  H467  1  0.99242000  0.92998000  0.59203000  1.0
  H  H468  1  0.07916000  0.91567000  0.58819000  1.0
  H  H469  1  0.06796000  0.93961000  0.54849000  1.0
  H  H470  1  0.09107000  0.02242000  0.52561000  1.0
  H  H471  1  0.07549000  0.00665000  0.50951000  1.0
  H  H472  1  0.00731000  0.06059000  0.65802000  1.0
  H  H473  1  0.96451000  0.05483000  0.68376000  1.0
  H  H474  1  0.97928000  0.11814000  0.59363000  1.0
  H  H475  1  0.93711000  0.11260000  0.61898000  1.0
  H  H476  1  0.22622000  0.32747000  0.28902000  1.0
  H  H477  1  0.15916000  0.48515000  0.26532000  1.0
  H  H478  1  0.18529000  0.44749000  0.25073000  1.0
  H  H479  1  0.13695000  0.61577000  0.17554000  1.0
  H  H480  1  0.18236000  0.54634000  0.22131000  1.0
  H  H481  1  0.96062000  0.70064000  0.41698000  1.0
  H  H482  1  0.98842000  0.72918000  0.33290000  1.0
  H  H483  1  0.00373000  0.63199000  0.45849000  1.0
  H  H484  1  0.99242000  0.59203000  0.48557000  1.0
  H  H485  1  0.07916000  0.58819000  0.41698000  1.0
  H  H486  1  0.06796000  0.54849000  0.44394000  1.0
  H  H487  1  0.09107000  0.52561000  0.36090000  1.0
  H  H488  1  0.07549000  0.50951000  0.40835000  1.0
  H  H489  1  0.00731000  0.65802000  0.27408000  1.0
  H  H490  1  0.96451000  0.68376000  0.29690000  1.0
  H  H491  1  0.97928000  0.59363000  0.30895000  1.0
  H  H492  1  0.93711000  0.61898000  0.33131000  1.0
  H  H493  1  0.15729000  0.28902000  0.32747000  1.0
  H  H494  1  0.09036000  0.26532000  0.48515000  1.0
  H  H495  1  0.11649000  0.25073000  0.44749000  1.0
  H  H496  1  0.07174000  0.17554000  0.61577000  1.0
  H  H497  1  0.04999000  0.22131000  0.54634000  1.0
  H  H498  1  0.92177000  0.41698000  0.70064000  1.0
  H  H499  1  0.94950000  0.33290000  0.72918000  1.0
  H  H500  1  0.90578000  0.45849000  0.63199000  1.0
  H  H501  1  0.92999000  0.48557000  0.59203000  1.0
  H  H502  1  0.91566000  0.41698000  0.58819000  1.0
  H  H503  1  0.93960000  0.44394000  0.54849000  1.0
  H  H504  1  0.02242000  0.36090000  0.52561000  1.0
  H  H505  1  0.00665000  0.40835000  0.50951000  1.0
  H  H506  1  0.06060000  0.27408000  0.65802000  1.0
  H  H507  1  0.05482000  0.29690000  0.68376000  1.0
  H  H508  1  0.11814000  0.30895000  0.59363000  1.0
  H  H509  1  0.11260000  0.33131000  0.61898000  1.0
  H  H510  1  0.32747000  0.22622000  0.15729000  1.0
  H  H511  1  0.48514000  0.15917000  0.09037000  1.0
  H  H512  1  0.44749000  0.18529000  0.11649000  1.0
  H  H513  1  0.61577000  0.13695000  0.07174000  1.0
  H  H514  1  0.54634000  0.18236000  0.04999000  1.0
  H  H515  1  0.70065000  0.96061000  0.92176000  1.0
  H  H516  1  0.72918000  0.98842000  0.94950000  1.0
  H  H517  1  0.63198000  0.00374000  0.90579000  1.0
  H  H518  1  0.59204000  0.99241000  0.92998000  1.0
  H  H519  1  0.58818000  0.07917000  0.91567000  1.0
  H  H520  1  0.54848000  0.06797000  0.93961000  1.0
  H  H521  1  0.52561000  0.09107000  0.02242000  1.0
  H  H522  1  0.50951000  0.07549000  0.00665000  1.0
  H  H523  1  0.65803000  0.00730000  0.06059000  1.0
  H  H524  1  0.68375000  0.96452000  0.05483000  1.0
  H  H525  1  0.59363000  0.97928000  0.11814000  1.0
  H  H526  1  0.61898000  0.93711000  0.11260000  1.0
  H  H527  1  0.28902000  0.15729000  0.22622000  1.0
  H  H528  1  0.26531000  0.09037000  0.15917000  1.0
  H  H529  1  0.25073000  0.11649000  0.18529000  1.0
  H  H530  1  0.17554000  0.07174000  0.13695000  1.0
  H  H531  1  0.22131000  0.04999000  0.18236000  1.0
  H  H532  1  0.41699000  0.92176000  0.96061000  1.0
  H  H533  1  0.33290000  0.94950000  0.98842000  1.0
  H  H534  1  0.45848000  0.90579000  0.00374000  1.0
  H  H535  1  0.48558000  0.92998000  0.99241000  1.0
  H  H536  1  0.41697000  0.91567000  0.07917000  1.0
  H  H537  1  0.44393000  0.93961000  0.06797000  1.0
  H  H538  1  0.36090000  0.02242000  0.09107000  1.0
  H  H539  1  0.40835000  0.00665000  0.07549000  1.0
  H  H540  1  0.27409000  0.06059000  0.00730000  1.0
  H  H541  1  0.29689000  0.05483000  0.96452000  1.0
  H  H542  1  0.30895000  0.11814000  0.97928000  1.0
  H  H543  1  0.33131000  0.11260000  0.93711000  1.0
  H  H544  1  0.15729000  0.32747000  0.22622000  1.0
  H  H545  1  0.09036000  0.48515000  0.15917000  1.0
  H  H546  1  0.11649000  0.44749000  0.18529000  1.0
  H  H547  1  0.07174000  0.61577000  0.13695000  1.0
  H  H548  1  0.04999000  0.54634000  0.18236000  1.0
  H  H549  1  0.92177000  0.70064000  0.96061000  1.0
  H  H550  1  0.94950000  0.72918000  0.98842000  1.0
  H  H551  1  0.90578000  0.63199000  0.00374000  1.0
  H  H552  1  0.92999000  0.59203000  0.99241000  1.0
  H  H553  1  0.91566000  0.58819000  0.07917000  1.0
  H  H554  1  0.93960000  0.54849000  0.06797000  1.0
  H  H555  1  0.02242000  0.52561000  0.09107000  1.0
  H  H556  1  0.00665000  0.50951000  0.07549000  1.0
  H  H557  1  0.06060000  0.65802000  0.00730000  1.0
  H  H558  1  0.05482000  0.68376000  0.96452000  1.0
  H  H559  1  0.11814000  0.59363000  0.97928000  1.0
  H  H560  1  0.11260000  0.61898000  0.93711000  1.0
  H  H561  1  0.22622000  0.28902000  0.15729000  1.0
  H  H562  1  0.15916000  0.26532000  0.09037000  1.0
  H  H563  1  0.18529000  0.25073000  0.11649000  1.0
  H  H564  1  0.13695000  0.17554000  0.07174000  1.0
  H  H565  1  0.18236000  0.22131000  0.04999000  1.0
  H  H566  1  0.96062000  0.41698000  0.92176000  1.0
  H  H567  1  0.98842000  0.33290000  0.94950000  1.0
  H  H568  1  0.00373000  0.45849000  0.90579000  1.0
  H  H569  1  0.99242000  0.48557000  0.92998000  1.0
  H  H570  1  0.07916000  0.41698000  0.91567000  1.0
  H  H571  1  0.06796000  0.44394000  0.93961000  1.0
  H  H572  1  0.09107000  0.36090000  0.02242000  1.0
  H  H573  1  0.07549000  0.40835000  0.00665000  1.0
  H  H574  1  0.00731000  0.27408000  0.06059000  1.0
  H  H575  1  0.96451000  0.29690000  0.05483000  1.0
  H  H576  1  0.97928000  0.30895000  0.11814000  1.0
  H  H577  1  0.93711000  0.33131000  0.11260000  1.0
  H  H578  1  0.28902000  0.22622000  0.32747000  1.0
  H  H579  1  0.26531000  0.15917000  0.48515000  1.0
  H  H580  1  0.25073000  0.18529000  0.44749000  1.0
  H  H581  1  0.17554000  0.13695000  0.61577000  1.0
  H  H582  1  0.22131000  0.18236000  0.54634000  1.0
  H  H583  1  0.41699000  0.96061000  0.70064000  1.0
  H  H584  1  0.33290000  0.98842000  0.72918000  1.0
  H  H585  1  0.45848000  0.00374000  0.63199000  1.0
  H  H586  1  0.48558000  0.99241000  0.59203000  1.0
  H  H587  1  0.41697000  0.07917000  0.58819000  1.0
  H  H588  1  0.44393000  0.06797000  0.54849000  1.0
  H  H589  1  0.36090000  0.09107000  0.52561000  1.0
  H  H590  1  0.40835000  0.07549000  0.50951000  1.0
  H  H591  1  0.27409000  0.00730000  0.65802000  1.0
  H  H592  1  0.29689000  0.96452000  0.68376000  1.0
  H  H593  1  0.30895000  0.97928000  0.59363000  1.0
  H  H594  1  0.33131000  0.93711000  0.61898000  1.0
  H  H595  1  0.32747000  0.15729000  0.28902000  1.0
  H  H596  1  0.48514000  0.09037000  0.26532000  1.0
  H  H597  1  0.44749000  0.11649000  0.25073000  1.0
  H  H598  1  0.61577000  0.07174000  0.17554000  1.0
  H  H599  1  0.54634000  0.04999000  0.22131000  1.0
  H  H600  1  0.70065000  0.92176000  0.41698000  1.0
  H  H601  1  0.72918000  0.94950000  0.33290000  1.0
  H  H602  1  0.63198000  0.90579000  0.45849000  1.0
  H  H603  1  0.59204000  0.92998000  0.48557000  1.0
  H  H604  1  0.58818000  0.91567000  0.41698000  1.0
  H  H605  1  0.54848000  0.93961000  0.44394000  1.0
  H  H606  1  0.52561000  0.02242000  0.36090000  1.0
  H  H607  1  0.50951000  0.00665000  0.40835000  1.0
  H  H608  1  0.65803000  0.06059000  0.27408000  1.0
  H  H609  1  0.68375000  0.05483000  0.29690000  1.0
  H  H610  1  0.59363000  0.11814000  0.30895000  1.0
  H  H611  1  0.61898000  0.11260000  0.33131000  1.0
  H  H612  1  0.32747000  0.28902000  0.15729000  1.0
  H  H613  1  0.48514000  0.26532000  0.09037000  1.0
  H  H614  1  0.44749000  0.25073000  0.11649000  1.0
  H  H615  1  0.61577000  0.17554000  0.07174000  1.0
  H  H616  1  0.54634000  0.22131000  0.04999000  1.0
  H  H617  1  0.70065000  0.41698000  0.92176000  1.0
  H  H618  1  0.72918000  0.33290000  0.94950000  1.0
  H  H619  1  0.63198000  0.45849000  0.90579000  1.0
  H  H620  1  0.59204000  0.48557000  0.92998000  1.0
  H  H621  1  0.58818000  0.41698000  0.91567000  1.0
  H  H622  1  0.54848000  0.44394000  0.93961000  1.0
  H  H623  1  0.52561000  0.36090000  0.02242000  1.0
  H  H624  1  0.50951000  0.40835000  0.00665000  1.0
  H  H625  1  0.65803000  0.27408000  0.06059000  1.0
  H  H626  1  0.68375000  0.29690000  0.05483000  1.0
  H  H627  1  0.59363000  0.30895000  0.11814000  1.0
  H  H628  1  0.61898000  0.33131000  0.11260000  1.0
  H  H629  1  0.28902000  0.32747000  0.22622000  1.0
  H  H630  1  0.26531000  0.48515000  0.15917000  1.0
  H  H631  1  0.25073000  0.44749000  0.18529000  1.0
  H  H632  1  0.17554000  0.61577000  0.13695000  1.0
  H  H633  1  0.22131000  0.54634000  0.18236000  1.0
  H  H634  1  0.41699000  0.70064000  0.96061000  1.0
  H  H635  1  0.33290000  0.72918000  0.98842000  1.0
  H  H636  1  0.45848000  0.63199000  0.00374000  1.0
  H  H637  1  0.48558000  0.59203000  0.99241000  1.0
  H  H638  1  0.41697000  0.58819000  0.07917000  1.0
  H  H639  1  0.44393000  0.54849000  0.06797000  1.0
  H  H640  1  0.36090000  0.52561000  0.09107000  1.0
  H  H641  1  0.40835000  0.50951000  0.07549000  1.0
  H  H642  1  0.27409000  0.65802000  0.00730000  1.0
  H  H643  1  0.29689000  0.68376000  0.96452000  1.0
  H  H644  1  0.30895000  0.59363000  0.97928000  1.0
  H  H645  1  0.33131000  0.61898000  0.93711000  1.0
  H  H646  1  0.22622000  0.15729000  0.28902000  1.0
  H  H647  1  0.15916000  0.09037000  0.26532000  1.0
  H  H648  1  0.18529000  0.11649000  0.25073000  1.0
  H  H649  1  0.13695000  0.07174000  0.17554000  1.0
  H  H650  1  0.18236000  0.04999000  0.22131000  1.0
  H  H651  1  0.96062000  0.92176000  0.41698000  1.0
  H  H652  1  0.98842000  0.94950000  0.33290000  1.0
  H  H653  1  0.00373000  0.90579000  0.45849000  1.0
  H  H654  1  0.99242000  0.92998000  0.48557000  1.0
  H  H655  1  0.07916000  0.91567000  0.41698000  1.0
  H  H656  1  0.06796000  0.93961000  0.44394000  1.0
  H  H657  1  0.09107000  0.02242000  0.36090000  1.0
  H  H658  1  0.07549000  0.00665000  0.40835000  1.0
  H  H659  1  0.00731000  0.06059000  0.27408000  1.0
  H  H660  1  0.96451000  0.05483000  0.29690000  1.0
  H  H661  1  0.97928000  0.11814000  0.30895000  1.0
  H  H662  1  0.93711000  0.11260000  0.33131000  1.0
  H  H663  1  0.15729000  0.22622000  0.32747000  1.0
  H  H664  1  0.09036000  0.15917000  0.48515000  1.0
  H  H665  1  0.11649000  0.18529000  0.44749000  1.0
  H  H666  1  0.07174000  0.13695000  0.61577000  1.0
  H  H667  1  0.04999000  0.18236000  0.54634000  1.0
  H  H668  1  0.92177000  0.96061000  0.70064000  1.0
  H  H669  1  0.94950000  0.98842000  0.72918000  1.0
  H  H670  1  0.90578000  0.00374000  0.63199000  1.0
  H  H671  1  0.92999000  0.99241000  0.59203000  1.0
  H  H672  1  0.91566000  0.07917000  0.58819000  1.0
  H  H673  1  0.93960000  0.06797000  0.54849000  1.0
  H  H674  1  0.02242000  0.09107000  0.52561000  1.0
  H  H675  1  0.00665000  0.07549000  0.50951000  1.0
  H  H676  1  0.06060000  0.00730000  0.65802000  1.0
  H  H677  1  0.05482000  0.96452000  0.68376000  1.0
  H  H678  1  0.11814000  0.97928000  0.59363000  1.0
  H  H679  1  0.11260000  0.93711000  0.61898000  1.0
  H  H680  1  0.32747000  0.22622000  0.28902000  1.0
  H  H681  1  0.48514000  0.15917000  0.26532000  1.0
  H  H682  1  0.44749000  0.18529000  0.25073000  1.0
  H  H683  1  0.61577000  0.13695000  0.17554000  1.0
  H  H684  1  0.54634000  0.18236000  0.22131000  1.0
  H  H685  1  0.70065000  0.96061000  0.41698000  1.0
  H  H686  1  0.72918000  0.98842000  0.33290000  1.0
  H  H687  1  0.63198000  0.00374000  0.45849000  1.0
  H  H688  1  0.59204000  0.99241000  0.48557000  1.0
  H  H689  1  0.58818000  0.07917000  0.41698000  1.0
  H  H690  1  0.54848000  0.06797000  0.44394000  1.0
  H  H691  1  0.52561000  0.09107000  0.36090000  1.0
  H  H692  1  0.50951000  0.07549000  0.40835000  1.0
  H  H693  1  0.65803000  0.00730000  0.27408000  1.0
  H  H694  1  0.68375000  0.96452000  0.29690000  1.0
  H  H695  1  0.59363000  0.97928000  0.30895000  1.0
  H  H696  1  0.61898000  0.93711000  0.33131000  1.0
  H  H697  1  0.28902000  0.15729000  0.32747000  1.0
  H  H698  1  0.26531000  0.09037000  0.48515000  1.0
  H  H699  1  0.25073000  0.11649000  0.44749000  1.0
  H  H700  1  0.17554000  0.07174000  0.61577000  1.0
  H  H701  1  0.22131000  0.04999000  0.54634000  1.0
  H  H702  1  0.41699000  0.92176000  0.70064000  1.0
  H  H703  1  0.33290000  0.94950000  0.72918000  1.0
  H  H704  1  0.45848000  0.90579000  0.63199000  1.0
  H  H705  1  0.48558000  0.92998000  0.59203000  1.0
  H  H706  1  0.41697000  0.91567000  0.58819000  1.0
  H  H707  1  0.44393000  0.93961000  0.54849000  1.0
  H  H708  1  0.36090000  0.02242000  0.52561000  1.0
  H  H709  1  0.40835000  0.00665000  0.50951000  1.0
  H  H710  1  0.27409000  0.06059000  0.65802000  1.0
  H  H711  1  0.29689000  0.05483000  0.68376000  1.0
  H  H712  1  0.30895000  0.11814000  0.59363000  1.0
  H  H713  1  0.33131000  0.11260000  0.61898000  1.0
  H  H714  1  0.22622000  0.32747000  0.15729000  1.0
  H  H715  1  0.15916000  0.48515000  0.09037000  1.0
  H  H716  1  0.18529000  0.44749000  0.11649000  1.0
  H  H717  1  0.13695000  0.61577000  0.07174000  1.0
  H  H718  1  0.18236000  0.54634000  0.04999000  1.0
  H  H719  1  0.96062000  0.70064000  0.92176000  1.0
  H  H720  1  0.98842000  0.72918000  0.94950000  1.0
  H  H721  1  0.00373000  0.63199000  0.90579000  1.0
  H  H722  1  0.99242000  0.59203000  0.92998000  1.0
  H  H723  1  0.07916000  0.58819000  0.91567000  1.0
  H  H724  1  0.06796000  0.54849000  0.93961000  1.0
  H  H725  1  0.09107000  0.52561000  0.02242000  1.0
  H  H726  1  0.07549000  0.50951000  0.00665000  1.0
  H  H727  1  0.00731000  0.65802000  0.06059000  1.0
  H  H728  1  0.96451000  0.68376000  0.05483000  1.0
  H  H729  1  0.97928000  0.59363000  0.11814000  1.0
  H  H730  1  0.93711000  0.61898000  0.11260000  1.0
  H  H731  1  0.15729000  0.28902000  0.22622000  1.0
  H  H732  1  0.09036000  0.26532000  0.15917000  1.0
  H  H733  1  0.11649000  0.25073000  0.18529000  1.0
  H  H734  1  0.07174000  0.17554000  0.13695000  1.0
  H  H735  1  0.04999000  0.22131000  0.18236000  1.0
  H  H736  1  0.92177000  0.41698000  0.96061000  1.0
  H  H737  1  0.94950000  0.33290000  0.98842000  1.0
  H  H738  1  0.90578000  0.45849000  0.00374000  1.0
  H  H739  1  0.92999000  0.48557000  0.99241000  1.0
  H  H740  1  0.91566000  0.41698000  0.07917000  1.0
  H  H741  1  0.93960000  0.44394000  0.06797000  1.0
  H  H742  1  0.02242000  0.36090000  0.09107000  1.0
  H  H743  1  0.00665000  0.40835000  0.07549000  1.0
  H  H744  1  0.06060000  0.27408000  0.00730000  1.0
  H  H745  1  0.05482000  0.29690000  0.96452000  1.0
  H  H746  1  0.11814000  0.30895000  0.97928000  1.0
  H  H747  1  0.11260000  0.33131000  0.93711000  1.0
  H  H748  1  0.32747000  0.15729000  0.22622000  1.0
  H  H749  1  0.48514000  0.09037000  0.15917000  1.0
  H  H750  1  0.44749000  0.11649000  0.18529000  1.0
  H  H751  1  0.61577000  0.07174000  0.13695000  1.0
  H  H752  1  0.54634000  0.04999000  0.18236000  1.0
  H  H753  1  0.70065000  0.92176000  0.96061000  1.0
  H  H754  1  0.72918000  0.94950000  0.98842000  1.0
  H  H755  1  0.63198000  0.90579000  0.00374000  1.0
  H  H756  1  0.59204000  0.92998000  0.99241000  1.0
  H  H757  1  0.58818000  0.91567000  0.07917000  1.0
  H  H758  1  0.54848000  0.93961000  0.06797000  1.0
  H  H759  1  0.52561000  0.02242000  0.09107000  1.0
  H  H760  1  0.50951000  0.00665000  0.07549000  1.0
  H  H761  1  0.65803000  0.06059000  0.00730000  1.0
  H  H762  1  0.68375000  0.05483000  0.96452000  1.0
  H  H763  1  0.59363000  0.11814000  0.97928000  1.0
  H  H764  1  0.61898000  0.11260000  0.93711000  1.0
  H  H765  1  0.28902000  0.22622000  0.15729000  1.0
  H  H766  1  0.26531000  0.15917000  0.09037000  1.0
  H  H767  1  0.25073000  0.18529000  0.11649000  1.0
  H  H768  1  0.17554000  0.13695000  0.07174000  1.0
  H  H769  1  0.22131000  0.18236000  0.04999000  1.0
  H  H770  1  0.41699000  0.96061000  0.92176000  1.0
  H  H771  1  0.33290000  0.98842000  0.94950000  1.0
  H  H772  1  0.45848000  0.00374000  0.90579000  1.0
  H  H773  1  0.48558000  0.99241000  0.92998000  1.0
  H  H774  1  0.41697000  0.07917000  0.91567000  1.0
  H  H775  1  0.44393000  0.06797000  0.93961000  1.0
  H  H776  1  0.36090000  0.09107000  0.02242000  1.0
  H  H777  1  0.40835000  0.07549000  0.00665000  1.0
  H  H778  1  0.27409000  0.00730000  0.06059000  1.0
  H  H779  1  0.29689000  0.96452000  0.05483000  1.0
  H  H780  1  0.30895000  0.97928000  0.11814000  1.0
  H  H781  1  0.33131000  0.93711000  0.11260000  1.0
  H  H782  1  0.22622000  0.28902000  0.32747000  1.0
  H  H783  1  0.15916000  0.26532000  0.48515000  1.0
  H  H784  1  0.18529000  0.25073000  0.44749000  1.0
  H  H785  1  0.13695000  0.17554000  0.61577000  1.0
  H  H786  1  0.18236000  0.22131000  0.54634000  1.0
  H  H787  1  0.96062000  0.41698000  0.70064000  1.0
  H  H788  1  0.98842000  0.33290000  0.72918000  1.0
  H  H789  1  0.00373000  0.45849000  0.63199000  1.0
  H  H790  1  0.99242000  0.48557000  0.59203000  1.0
  H  H791  1  0.07916000  0.41698000  0.58819000  1.0
  H  H792  1  0.06796000  0.44394000  0.54849000  1.0
  H  H793  1  0.09107000  0.36090000  0.52561000  1.0
  H  H794  1  0.07549000  0.40835000  0.50951000  1.0
  H  H795  1  0.00731000  0.27408000  0.65802000  1.0
  H  H796  1  0.96451000  0.29690000  0.68376000  1.0
  H  H797  1  0.97928000  0.30895000  0.59363000  1.0
  H  H798  1  0.93711000  0.33131000  0.61898000  1.0
  H  H799  1  0.15729000  0.32747000  0.28902000  1.0
  H  H800  1  0.09036000  0.48515000  0.26532000  1.0
  H  H801  1  0.11649000  0.44749000  0.25073000  1.0
  H  H802  1  0.07174000  0.61577000  0.17554000  1.0
  H  H803  1  0.04999000  0.54634000  0.22131000  1.0
  H  H804  1  0.92177000  0.70064000  0.41698000  1.0
  H  H805  1  0.94950000  0.72918000  0.33290000  1.0
  H  H806  1  0.90578000  0.63199000  0.45849000  1.0
  H  H807  1  0.92999000  0.59203000  0.48557000  1.0
  H  H808  1  0.91566000  0.58819000  0.41698000  1.0
  H  H809  1  0.93960000  0.54849000  0.44394000  1.0
  H  H810  1  0.02242000  0.52561000  0.36090000  1.0
  H  H811  1  0.00665000  0.50951000  0.40835000  1.0
  H  H812  1  0.06060000  0.65802000  0.27408000  1.0
  H  H813  1  0.05482000  0.68376000  0.29690000  1.0
  H  H814  1  0.11814000  0.59363000  0.30895000  1.0
  H  H815  1  0.11260000  0.61898000  0.33131000  1.0
  H  H816  1  0.46098000  0.42253000  0.59271000  1.0
  H  H817  1  0.48469000  0.26485000  0.65963000  1.0
  H  H818  1  0.49927000  0.30251000  0.63351000  1.0
  H  H819  1  0.57446000  0.13423000  0.67826000  1.0
  H  H820  1  0.52869000  0.20366000  0.70001000  1.0
  H  H821  1  0.33301000  0.04936000  0.82824000  1.0
  H  H822  1  0.41710000  0.02082000  0.80050000  1.0
  H  H823  1  0.29152000  0.11801000  0.84421000  1.0
  H  H824  1  0.26442000  0.15797000  0.82002000  1.0
  H  H825  1  0.33303000  0.16181000  0.83433000  1.0
  H  H826  1  0.30607000  0.20151000  0.81039000  1.0
  H  H827  1  0.38910000  0.22439000  0.72758000  1.0
  H  H828  1  0.34165000  0.24049000  0.74335000  1.0
  H  H829  1  0.47591000  0.09198000  0.68941000  1.0
  H  H830  1  0.45311000  0.06624000  0.69517000  1.0
  H  H831  1  0.44105000  0.15637000  0.63186000  1.0
  H  H832  1  0.41869000  0.13102000  0.63740000  1.0
  H  H833  1  0.42253000  0.46098000  0.52378000  1.0
  H  H834  1  0.26486000  0.48468000  0.59083000  1.0
  H  H835  1  0.30251000  0.49927000  0.56471000  1.0
  H  H836  1  0.13423000  0.57446000  0.61305000  1.0
  H  H837  1  0.20366000  0.52869000  0.56764000  1.0
  H  H838  1  0.04935000  0.33302000  0.78939000  1.0
  H  H839  1  0.02082000  0.41710000  0.76158000  1.0
  H  H840  1  0.11802000  0.29151000  0.74626000  1.0
  H  H841  1  0.15796000  0.26443000  0.75759000  1.0
  H  H842  1  0.16182000  0.33302000  0.67083000  1.0
  H  H843  1  0.20152000  0.30606000  0.68203000  1.0
  H  H844  1  0.22439000  0.38910000  0.65893000  1.0
  H  H845  1  0.24049000  0.34165000  0.67451000  1.0
  H  H846  1  0.09197000  0.47592000  0.74270000  1.0
  H  H847  1  0.06625000  0.45310000  0.78548000  1.0
  H  H848  1  0.15637000  0.44105000  0.77072000  1.0
  H  H849  1  0.13102000  0.41869000  0.81289000  1.0
  H  H850  1  0.59271000  0.52378000  0.46098000  1.0
  H  H851  1  0.65964000  0.59083000  0.48468000  1.0
  H  H852  1  0.63351000  0.56471000  0.49927000  1.0
  H  H853  1  0.67826000  0.61305000  0.57446000  1.0
  H  H854  1  0.70001000  0.56764000  0.52869000  1.0
  H  H855  1  0.82823000  0.78939000  0.33302000  1.0
  H  H856  1  0.80050000  0.76158000  0.41710000  1.0
  H  H857  1  0.84422000  0.74626000  0.29151000  1.0
  H  H858  1  0.82001000  0.75759000  0.26443000  1.0
  H  H859  1  0.83434000  0.67083000  0.33302000  1.0
  H  H860  1  0.81040000  0.68203000  0.30606000  1.0
  H  H861  1  0.72758000  0.65893000  0.38910000  1.0
  H  H862  1  0.74335000  0.67451000  0.34165000  1.0
  H  H863  1  0.68940000  0.74270000  0.47592000  1.0
  H  H864  1  0.69518000  0.78548000  0.45310000  1.0
  H  H865  1  0.63186000  0.77072000  0.44105000  1.0
  H  H866  1  0.63740000  0.81289000  0.41869000  1.0
  H  H867  1  0.52378000  0.59271000  0.42253000  1.0
  H  H868  1  0.59084000  0.65963000  0.26485000  1.0
  H  H869  1  0.56471000  0.63351000  0.30251000  1.0
  H  H870  1  0.61305000  0.67826000  0.13423000  1.0
  H  H871  1  0.56764000  0.70001000  0.20366000  1.0
  H  H872  1  0.78938000  0.82824000  0.04936000  1.0
  H  H873  1  0.76158000  0.80050000  0.02082000  1.0
  H  H874  1  0.74627000  0.84421000  0.11801000  1.0
  H  H875  1  0.75758000  0.82002000  0.15797000  1.0
  H  H876  1  0.67084000  0.83433000  0.16181000  1.0
  H  H877  1  0.68204000  0.81039000  0.20151000  1.0
  H  H878  1  0.65893000  0.72758000  0.22439000  1.0
  H  H879  1  0.67451000  0.74335000  0.24049000  1.0
  H  H880  1  0.74269000  0.68941000  0.09198000  1.0
  H  H881  1  0.78549000  0.69517000  0.06624000  1.0
  H  H882  1  0.77072000  0.63186000  0.15637000  1.0
  H  H883  1  0.81289000  0.63740000  0.13102000  1.0
  H  H884  1  0.52378000  0.42253000  0.46098000  1.0
  H  H885  1  0.59084000  0.26485000  0.48468000  1.0
  H  H886  1  0.56471000  0.30251000  0.49927000  1.0
  H  H887  1  0.61305000  0.13423000  0.57446000  1.0
  H  H888  1  0.56764000  0.20366000  0.52869000  1.0
  H  H889  1  0.78938000  0.04936000  0.33302000  1.0
  H  H890  1  0.76158000  0.02082000  0.41710000  1.0
  H  H891  1  0.74627000  0.11801000  0.29151000  1.0
  H  H892  1  0.75758000  0.15797000  0.26443000  1.0
  H  H893  1  0.67084000  0.16181000  0.33302000  1.0
  H  H894  1  0.68204000  0.20151000  0.30606000  1.0
  H  H895  1  0.65893000  0.22439000  0.38910000  1.0
  H  H896  1  0.67451000  0.24049000  0.34165000  1.0
  H  H897  1  0.74269000  0.09198000  0.47592000  1.0
  H  H898  1  0.78549000  0.06624000  0.45310000  1.0
  H  H899  1  0.77072000  0.15637000  0.44105000  1.0
  H  H900  1  0.81289000  0.13102000  0.41869000  1.0
  H  H901  1  0.59271000  0.46098000  0.42253000  1.0
  H  H902  1  0.65964000  0.48468000  0.26485000  1.0
  H  H903  1  0.63351000  0.49927000  0.30251000  1.0
  H  H904  1  0.67826000  0.57446000  0.13423000  1.0
  H  H905  1  0.70001000  0.52869000  0.20366000  1.0
  H  H906  1  0.82823000  0.33302000  0.04936000  1.0
  H  H907  1  0.80050000  0.41710000  0.02082000  1.0
  H  H908  1  0.84422000  0.29151000  0.11801000  1.0
  H  H909  1  0.82001000  0.26443000  0.15797000  1.0
  H  H910  1  0.83434000  0.33302000  0.16181000  1.0
  H  H911  1  0.81040000  0.30606000  0.20151000  1.0
  H  H912  1  0.72758000  0.38910000  0.22439000  1.0
  H  H913  1  0.74335000  0.34165000  0.24049000  1.0
  H  H914  1  0.68940000  0.47592000  0.09198000  1.0
  H  H915  1  0.69518000  0.45310000  0.06624000  1.0
  H  H916  1  0.63186000  0.44105000  0.15637000  1.0
  H  H917  1  0.63740000  0.41869000  0.13102000  1.0
  H  H918  1  0.42253000  0.52378000  0.59271000  1.0
  H  H919  1  0.26486000  0.59083000  0.65963000  1.0
  H  H920  1  0.30251000  0.56471000  0.63351000  1.0
  H  H921  1  0.13423000  0.61305000  0.67826000  1.0
  H  H922  1  0.20366000  0.56764000  0.70001000  1.0
  H  H923  1  0.04935000  0.78939000  0.82824000  1.0
  H  H924  1  0.02082000  0.76158000  0.80050000  1.0
  H  H925  1  0.11802000  0.74626000  0.84421000  1.0
  H  H926  1  0.15796000  0.75759000  0.82002000  1.0
  H  H927  1  0.16182000  0.67083000  0.83433000  1.0
  H  H928  1  0.20152000  0.68203000  0.81039000  1.0
  H  H929  1  0.22439000  0.65893000  0.72758000  1.0
  H  H930  1  0.24049000  0.67451000  0.74335000  1.0
  H  H931  1  0.09197000  0.74270000  0.68941000  1.0
  H  H932  1  0.06625000  0.78548000  0.69517000  1.0
  H  H933  1  0.15637000  0.77072000  0.63186000  1.0
  H  H934  1  0.13102000  0.81289000  0.63740000  1.0
  H  H935  1  0.46098000  0.59271000  0.52378000  1.0
  H  H936  1  0.48469000  0.65963000  0.59083000  1.0
  H  H937  1  0.49927000  0.63351000  0.56471000  1.0
  H  H938  1  0.57446000  0.67826000  0.61305000  1.0
  H  H939  1  0.52869000  0.70001000  0.56764000  1.0
  H  H940  1  0.33301000  0.82824000  0.78939000  1.0
  H  H941  1  0.41710000  0.80050000  0.76158000  1.0
  H  H942  1  0.29152000  0.84421000  0.74626000  1.0
  H  H943  1  0.26442000  0.82002000  0.75759000  1.0
  H  H944  1  0.33303000  0.83433000  0.67083000  1.0
  H  H945  1  0.30607000  0.81039000  0.68203000  1.0
  H  H946  1  0.38910000  0.72758000  0.65893000  1.0
  H  H947  1  0.34165000  0.74335000  0.67451000  1.0
  H  H948  1  0.47591000  0.68941000  0.74270000  1.0
  H  H949  1  0.45311000  0.69517000  0.78548000  1.0
  H  H950  1  0.44105000  0.63186000  0.77072000  1.0
  H  H951  1  0.41869000  0.63740000  0.81289000  1.0
  H  H952  1  0.59271000  0.42253000  0.52378000  1.0
  H  H953  1  0.65964000  0.26485000  0.59083000  1.0
  H  H954  1  0.63351000  0.30251000  0.56471000  1.0
  H  H955  1  0.67826000  0.13423000  0.61305000  1.0
  H  H956  1  0.70001000  0.20366000  0.56764000  1.0
  H  H957  1  0.82823000  0.04936000  0.78939000  1.0
  H  H958  1  0.80050000  0.02082000  0.76158000  1.0
  H  H959  1  0.84422000  0.11801000  0.74626000  1.0
  H  H960  1  0.82001000  0.15797000  0.75759000  1.0
  H  H961  1  0.83434000  0.16181000  0.67083000  1.0
  H  H962  1  0.81040000  0.20151000  0.68203000  1.0
  H  H963  1  0.72758000  0.22439000  0.65893000  1.0
  H  H964  1  0.74335000  0.24049000  0.67451000  1.0
  H  H965  1  0.68940000  0.09198000  0.74270000  1.0
  H  H966  1  0.69518000  0.06624000  0.78548000  1.0
  H  H967  1  0.63186000  0.15637000  0.77072000  1.0
  H  H968  1  0.63740000  0.13102000  0.81289000  1.0
  H  H969  1  0.52378000  0.46098000  0.59271000  1.0
  H  H970  1  0.59084000  0.48468000  0.65963000  1.0
  H  H971  1  0.56471000  0.49927000  0.63351000  1.0
  H  H972  1  0.61305000  0.57446000  0.67826000  1.0
  H  H973  1  0.56764000  0.52869000  0.70001000  1.0
  H  H974  1  0.78938000  0.33302000  0.82824000  1.0
  H  H975  1  0.76158000  0.41710000  0.80050000  1.0
  H  H976  1  0.74627000  0.29151000  0.84421000  1.0
  H  H977  1  0.75758000  0.26443000  0.82002000  1.0
  H  H978  1  0.67084000  0.33302000  0.83433000  1.0
  H  H979  1  0.68204000  0.30606000  0.81039000  1.0
  H  H980  1  0.65893000  0.38910000  0.72758000  1.0
  H  H981  1  0.67451000  0.34165000  0.74335000  1.0
  H  H982  1  0.74269000  0.47592000  0.68941000  1.0
  H  H983  1  0.78549000  0.45310000  0.69517000  1.0
  H  H984  1  0.77072000  0.44105000  0.63186000  1.0
  H  H985  1  0.81289000  0.41869000  0.63740000  1.0
  H  H986  1  0.46098000  0.52378000  0.42253000  1.0
  H  H987  1  0.48469000  0.59083000  0.26485000  1.0
  H  H988  1  0.49927000  0.56471000  0.30251000  1.0
  H  H989  1  0.57446000  0.61305000  0.13423000  1.0
  H  H990  1  0.52869000  0.56764000  0.20366000  1.0
  H  H991  1  0.33301000  0.78939000  0.04936000  1.0
  H  H992  1  0.41710000  0.76158000  0.02082000  1.0
  H  H993  1  0.29152000  0.74626000  0.11801000  1.0
  H  H994  1  0.26442000  0.75759000  0.15797000  1.0
  H  H995  1  0.33303000  0.67083000  0.16181000  1.0
  H  H996  1  0.30607000  0.68203000  0.20151000  1.0
  H  H997  1  0.38910000  0.65893000  0.22439000  1.0
  H  H998  1  0.34165000  0.67451000  0.24049000  1.0
  H  H999  1  0.47591000  0.74270000  0.09198000  1.0
  H  H1000  1  0.45311000  0.78548000  0.06624000  1.0
  H  H1001  1  0.44105000  0.77072000  0.15637000  1.0
  H  H1002  1  0.41869000  0.81289000  0.13102000  1.0
  H  H1003  1  0.42253000  0.59271000  0.46098000  1.0
  H  H1004  1  0.26486000  0.65963000  0.48468000  1.0
  H  H1005  1  0.30251000  0.63351000  0.49927000  1.0
  H  H1006  1  0.13423000  0.67826000  0.57446000  1.0
  H  H1007  1  0.20366000  0.70001000  0.52869000  1.0
  H  H1008  1  0.04935000  0.82824000  0.33302000  1.0
  H  H1009  1  0.02082000  0.80050000  0.41710000  1.0
  H  H1010  1  0.11802000  0.84421000  0.29151000  1.0
  H  H1011  1  0.15796000  0.82002000  0.26443000  1.0
  H  H1012  1  0.16182000  0.83433000  0.33302000  1.0
  H  H1013  1  0.20152000  0.81039000  0.30606000  1.0
  H  H1014  1  0.22439000  0.72758000  0.38910000  1.0
  H  H1015  1  0.24049000  0.74335000  0.34165000  1.0
  H  H1016  1  0.09197000  0.68941000  0.47592000  1.0
  H  H1017  1  0.06625000  0.69517000  0.45310000  1.0
  H  H1018  1  0.15637000  0.63186000  0.44105000  1.0
  H  H1019  1  0.13102000  0.63740000  0.41869000  1.0
  C  C1020  1  0.43055000  0.45277000  0.57760000  1.0
  C  C1021  1  0.27304000  0.48753000  0.63898000  1.0
  C  C1022  1  0.29461000  0.49597000  0.62397000  1.0
  C  C1023  1  0.14946000  0.57254000  0.68321000  1.0
  C  C1024  1  0.16936000  0.52511000  0.68773000  1.0
  C  C1025  1  0.16897000  0.54833000  0.68911000  1.0
  C  C1026  1  0.18830000  0.54696000  0.69542000  1.0
  C  C1027  1  0.04274000  0.35157000  0.81406000  1.0
  C  C1028  1  0.03742000  0.37499000  0.84064000  1.0
  C  C1029  1  0.03507000  0.37506000  0.81782000  1.0
  C  C1030  1  0.02678000  0.39857000  0.79855000  1.0
  C  C1031  1  0.13612000  0.29484000  0.83703000  1.0
  C  C1032  1  0.11196000  0.33169000  0.85596000  1.0
  C  C1033  1  0.13640000  0.31470000  0.84130000  1.0
  C  C1034  1  0.15916000  0.27917000  0.82319000  1.0
  C  C1035  1  0.20770000  0.26739000  0.79690000  1.0
  C  C1036  1  0.18328000  0.28274000  0.81325000  1.0
  C  C1037  1  0.16057000  0.31810000  0.83149000  1.0
  C  C1038  1  0.18353000  0.30243000  0.81778000  1.0
  C  C1039  1  0.22788000  0.37901000  0.71575000  1.0
  C  C1040  1  0.23724000  0.35159000  0.72480000  1.0
  C  C1041  1  0.10050000  0.46368000  0.67776000  1.0
  C  C1042  1  0.14300000  0.47170000  0.65834000  1.0
  C  C1043  1  0.12631000  0.46013000  0.66028000  1.0
  C  C1044  1  0.08577000  0.45062000  0.68111000  1.0
  C  C1045  1  0.07861000  0.33192000  0.92204000  1.0
  C  C1046  1  0.09661000  0.43385000  0.66701000  1.0
  C  C1047  1  0.13668000  0.44408000  0.64562000  1.0
  C  C1048  1  0.12205000  0.43119000  0.64889000  1.0
  C  C1049  1  0.45276000  0.43056000  0.53908000  1.0
  C  C1050  1  0.48753000  0.27304000  0.60045000  1.0
  C  C1051  1  0.49597000  0.29461000  0.58545000  1.0
  C  C1052  1  0.57254000  0.14946000  0.59479000  1.0
  C  C1053  1  0.52510000  0.16937000  0.61780000  1.0
  C  C1054  1  0.54834000  0.16896000  0.59359000  1.0
  C  C1055  1  0.54696000  0.18830000  0.56932000  1.0
  C  C1056  1  0.35157000  0.04274000  0.79163000  1.0
  C  C1057  1  0.37499000  0.03742000  0.74695000  1.0
  C  C1058  1  0.37507000  0.03506000  0.77205000  1.0
  C  C1059  1  0.39857000  0.02678000  0.77610000  1.0
  C  C1060  1  0.29485000  0.13611000  0.73201000  1.0
  C  C1061  1  0.33169000  0.11196000  0.70039000  1.0
  C  C1062  1  0.31470000  0.13640000  0.70760000  1.0
  C  C1063  1  0.27918000  0.15915000  0.73848000  1.0
  C  C1064  1  0.26739000  0.20770000  0.72801000  1.0
  C  C1065  1  0.28274000  0.18328000  0.72073000  1.0
  C  C1066  1  0.31810000  0.16057000  0.68984000  1.0
  C  C1067  1  0.30243000  0.18353000  0.69626000  1.0
  C  C1068  1  0.37901000  0.22788000  0.67736000  1.0
  C  C1069  1  0.35159000  0.23724000  0.68637000  1.0
  C  C1070  1  0.46368000  0.10050000  0.75806000  1.0
  C  C1071  1  0.47170000  0.14300000  0.72696000  1.0
  C  C1072  1  0.46013000  0.12631000  0.75328000  1.0
  C  C1073  1  0.45062000  0.08577000  0.78250000  1.0
  C  C1074  1  0.33191000  0.07862000  0.66743000  1.0
  C  C1075  1  0.43385000  0.09661000  0.80253000  1.0
  C  C1076  1  0.44407000  0.13669000  0.77362000  1.0
  C  C1077  1  0.43118000  0.12206000  0.79787000  1.0
  C  C1078  1  0.53907000  0.57760000  0.45277000  1.0
  C  C1079  1  0.60045000  0.63898000  0.48753000  1.0
  C  C1080  1  0.58545000  0.62397000  0.49597000  1.0
  C  C1081  1  0.59479000  0.68321000  0.57254000  1.0
  C  C1082  1  0.61779000  0.68773000  0.52511000  1.0
  C  C1083  1  0.59360000  0.68911000  0.54833000  1.0
  C  C1084  1  0.56932000  0.69542000  0.54696000  1.0
  C  C1085  1  0.79163000  0.81406000  0.35157000  1.0
  C  C1086  1  0.74695000  0.84064000  0.37499000  1.0
  C  C1087  1  0.77206000  0.81782000  0.37506000  1.0
  C  C1088  1  0.77610000  0.79855000  0.39857000  1.0
  C  C1089  1  0.73202000  0.83703000  0.29484000  1.0
  C  C1090  1  0.70039000  0.85596000  0.33169000  1.0
  C  C1091  1  0.70760000  0.84130000  0.31470000  1.0
  C  C1092  1  0.73849000  0.82319000  0.27917000  1.0
  C  C1093  1  0.72801000  0.79690000  0.26739000  1.0
  C  C1094  1  0.72073000  0.81325000  0.28274000  1.0
  C  C1095  1  0.68984000  0.83149000  0.31810000  1.0
  C  C1096  1  0.69626000  0.81778000  0.30243000  1.0
  C  C1097  1  0.67736000  0.71575000  0.37901000  1.0
  C  C1098  1  0.68637000  0.72480000  0.35159000  1.0
  C  C1099  1  0.75806000  0.67776000  0.46368000  1.0
  C  C1100  1  0.72696000  0.65834000  0.47170000  1.0
  C  C1101  1  0.75328000  0.66028000  0.46013000  1.0
  C  C1102  1  0.78250000  0.68111000  0.45062000  1.0
  C  C1103  1  0.66742000  0.92204000  0.33192000  1.0
  C  C1104  1  0.80253000  0.66701000  0.43385000  1.0
  C  C1105  1  0.77361000  0.64562000  0.44408000  1.0
  C  C1106  1  0.79786000  0.64889000  0.43119000  1.0
  C  C1107  1  0.57759000  0.53908000  0.43056000  1.0
  C  C1108  1  0.63898000  0.60045000  0.27304000  1.0
  C  C1109  1  0.62397000  0.58545000  0.29461000  1.0
  C  C1110  1  0.68321000  0.59479000  0.14946000  1.0
  C  C1111  1  0.68772000  0.61780000  0.16937000  1.0
  C  C1112  1  0.68912000  0.59359000  0.16896000  1.0
  C  C1113  1  0.69542000  0.56932000  0.18830000  1.0
  C  C1114  1  0.81406000  0.79163000  0.04274000  1.0
  C  C1115  1  0.84064000  0.74695000  0.03742000  1.0
  C  C1116  1  0.81783000  0.77205000  0.03506000  1.0
  C  C1117  1  0.79855000  0.77610000  0.02678000  1.0
  C  C1118  1  0.83704000  0.73201000  0.13611000  1.0
  C  C1119  1  0.85596000  0.70039000  0.11196000  1.0
  C  C1120  1  0.84130000  0.70760000  0.13640000  1.0
  C  C1121  1  0.82320000  0.73848000  0.15915000  1.0
  C  C1122  1  0.79690000  0.72801000  0.20770000  1.0
  C  C1123  1  0.81325000  0.72073000  0.18328000  1.0
  C  C1124  1  0.83149000  0.68984000  0.16057000  1.0
  C  C1125  1  0.81778000  0.69626000  0.18353000  1.0
  C  C1126  1  0.71575000  0.67736000  0.22788000  1.0
  C  C1127  1  0.72480000  0.68637000  0.23724000  1.0
  C  C1128  1  0.67776000  0.75806000  0.10050000  1.0
  C  C1129  1  0.65834000  0.72696000  0.14300000  1.0
  C  C1130  1  0.66028000  0.75328000  0.12631000  1.0
  C  C1131  1  0.68111000  0.78250000  0.08577000  1.0
  C  C1132  1  0.92203000  0.66743000  0.07862000  1.0
  C  C1133  1  0.66701000  0.80253000  0.09661000  1.0
  C  C1134  1  0.64561000  0.77362000  0.13669000  1.0
  C  C1135  1  0.64888000  0.79787000  0.12206000  1.0
  C  C1136  1  0.43055000  0.53908000  0.45277000  1.0
  C  C1137  1  0.27304000  0.60045000  0.48753000  1.0
  C  C1138  1  0.29461000  0.58545000  0.49597000  1.0
  C  C1139  1  0.14946000  0.59479000  0.57254000  1.0
  C  C1140  1  0.16936000  0.61780000  0.52511000  1.0
  C  C1141  1  0.16897000  0.59359000  0.54833000  1.0
  C  C1142  1  0.18830000  0.56932000  0.54696000  1.0
  C  C1143  1  0.04274000  0.79163000  0.35157000  1.0
  C  C1144  1  0.03742000  0.74695000  0.37499000  1.0
  C  C1145  1  0.03507000  0.77205000  0.37506000  1.0
  C  C1146  1  0.02678000  0.77610000  0.39857000  1.0
  C  C1147  1  0.13612000  0.73201000  0.29484000  1.0
  C  C1148  1  0.11196000  0.70039000  0.33169000  1.0
  C  C1149  1  0.13640000  0.70760000  0.31470000  1.0
  C  C1150  1  0.15916000  0.73848000  0.27917000  1.0
  C  C1151  1  0.20770000  0.72801000  0.26739000  1.0
  C  C1152  1  0.18328000  0.72073000  0.28274000  1.0
  C  C1153  1  0.16057000  0.68984000  0.31810000  1.0
  C  C1154  1  0.18353000  0.69626000  0.30243000  1.0
  C  C1155  1  0.22788000  0.67736000  0.37901000  1.0
  C  C1156  1  0.23724000  0.68637000  0.35159000  1.0
  C  C1157  1  0.10050000  0.75806000  0.46368000  1.0
  C  C1158  1  0.14300000  0.72696000  0.47170000  1.0
  C  C1159  1  0.12631000  0.75328000  0.46013000  1.0
  C  C1160  1  0.08577000  0.78250000  0.45062000  1.0
  C  C1161  1  0.07861000  0.66743000  0.33192000  1.0
  C  C1162  1  0.09661000  0.80253000  0.43385000  1.0
  C  C1163  1  0.13668000  0.77362000  0.44408000  1.0
  C  C1164  1  0.12205000  0.79787000  0.43119000  1.0
  C  C1165  1  0.45276000  0.57760000  0.43056000  1.0
  C  C1166  1  0.48753000  0.63898000  0.27304000  1.0
  C  C1167  1  0.49597000  0.62397000  0.29461000  1.0
  C  C1168  1  0.57254000  0.68321000  0.14946000  1.0
  C  C1169  1  0.52510000  0.68773000  0.16937000  1.0
  C  C1170  1  0.54834000  0.68911000  0.16896000  1.0
  C  C1171  1  0.54696000  0.69542000  0.18830000  1.0
  C  C1172  1  0.35157000  0.81406000  0.04274000  1.0
  C  C1173  1  0.37499000  0.84064000  0.03742000  1.0
  C  C1174  1  0.37507000  0.81782000  0.03506000  1.0
  C  C1175  1  0.39857000  0.79855000  0.02678000  1.0
  C  C1176  1  0.29485000  0.83703000  0.13611000  1.0
  C  C1177  1  0.33169000  0.85596000  0.11196000  1.0
  C  C1178  1  0.31470000  0.84130000  0.13640000  1.0
  C  C1179  1  0.27918000  0.82319000  0.15915000  1.0
  C  C1180  1  0.26739000  0.79690000  0.20770000  1.0
  C  C1181  1  0.28274000  0.81325000  0.18328000  1.0
  C  C1182  1  0.31810000  0.83149000  0.16057000  1.0
  C  C1183  1  0.30243000  0.81778000  0.18353000  1.0
  C  C1184  1  0.37901000  0.71575000  0.22788000  1.0
  C  C1185  1  0.35159000  0.72480000  0.23724000  1.0
  C  C1186  1  0.46368000  0.67776000  0.10050000  1.0
  C  C1187  1  0.47170000  0.65834000  0.14300000  1.0
  C  C1188  1  0.46013000  0.66028000  0.12631000  1.0
  C  C1189  1  0.45062000  0.68111000  0.08577000  1.0
  C  C1190  1  0.33191000  0.92204000  0.07862000  1.0
  C  C1191  1  0.43385000  0.66701000  0.09661000  1.0
  C  C1192  1  0.44407000  0.64562000  0.13669000  1.0
  C  C1193  1  0.43118000  0.64889000  0.12206000  1.0
  C  C1194  1  0.53907000  0.43056000  0.57760000  1.0
  C  C1195  1  0.60045000  0.27304000  0.63898000  1.0
  C  C1196  1  0.58545000  0.29461000  0.62397000  1.0
  C  C1197  1  0.59479000  0.14946000  0.68321000  1.0
  C  C1198  1  0.61779000  0.16937000  0.68773000  1.0
  C  C1199  1  0.59360000  0.16896000  0.68911000  1.0
  C  C1200  1  0.56932000  0.18830000  0.69542000  1.0
  C  C1201  1  0.79163000  0.04274000  0.81406000  1.0
  C  C1202  1  0.74695000  0.03742000  0.84064000  1.0
  C  C1203  1  0.77206000  0.03506000  0.81782000  1.0
  C  C1204  1  0.77610000  0.02678000  0.79855000  1.0
  C  C1205  1  0.73202000  0.13611000  0.83703000  1.0
  C  C1206  1  0.70039000  0.11196000  0.85596000  1.0
  C  C1207  1  0.70760000  0.13640000  0.84130000  1.0
  C  C1208  1  0.73849000  0.15915000  0.82319000  1.0
  C  C1209  1  0.72801000  0.20770000  0.79690000  1.0
  C  C1210  1  0.72073000  0.18328000  0.81325000  1.0
  C  C1211  1  0.68984000  0.16057000  0.83149000  1.0
  C  C1212  1  0.69626000  0.18353000  0.81778000  1.0
  C  C1213  1  0.67736000  0.22788000  0.71575000  1.0
  C  C1214  1  0.68637000  0.23724000  0.72480000  1.0
  C  C1215  1  0.75806000  0.10050000  0.67776000  1.0
  C  C1216  1  0.72696000  0.14300000  0.65834000  1.0
  C  C1217  1  0.75328000  0.12631000  0.66028000  1.0
  C  C1218  1  0.78250000  0.08577000  0.68111000  1.0
  C  C1219  1  0.66742000  0.07862000  0.92204000  1.0
  C  C1220  1  0.80253000  0.09661000  0.66701000  1.0
  C  C1221  1  0.77361000  0.13669000  0.64562000  1.0
  C  C1222  1  0.79786000  0.12206000  0.64889000  1.0
  C  C1223  1  0.57759000  0.45277000  0.53908000  1.0
  C  C1224  1  0.63898000  0.48753000  0.60045000  1.0
  C  C1225  1  0.62397000  0.49597000  0.58545000  1.0
  C  C1226  1  0.68321000  0.57254000  0.59479000  1.0
  C  C1227  1  0.68772000  0.52511000  0.61780000  1.0
  C  C1228  1  0.68912000  0.54833000  0.59359000  1.0
  C  C1229  1  0.69542000  0.54696000  0.56932000  1.0
  C  C1230  1  0.81406000  0.35157000  0.79163000  1.0
  C  C1231  1  0.84064000  0.37499000  0.74695000  1.0
  C  C1232  1  0.81783000  0.37506000  0.77205000  1.0
  C  C1233  1  0.79855000  0.39857000  0.77610000  1.0
  C  C1234  1  0.83704000  0.29484000  0.73201000  1.0
  C  C1235  1  0.85596000  0.33169000  0.70039000  1.0
  C  C1236  1  0.84130000  0.31470000  0.70760000  1.0
  C  C1237  1  0.82320000  0.27917000  0.73848000  1.0
  C  C1238  1  0.79690000  0.26739000  0.72801000  1.0
  C  C1239  1  0.81325000  0.28274000  0.72073000  1.0
  C  C1240  1  0.83149000  0.31810000  0.68984000  1.0
  C  C1241  1  0.81778000  0.30243000  0.69626000  1.0
  C  C1242  1  0.71575000  0.37901000  0.67736000  1.0
  C  C1243  1  0.72480000  0.35159000  0.68637000  1.0
  C  C1244  1  0.67776000  0.46368000  0.75806000  1.0
  C  C1245  1  0.65834000  0.47170000  0.72696000  1.0
  C  C1246  1  0.66028000  0.46013000  0.75328000  1.0
  C  C1247  1  0.68111000  0.45062000  0.78250000  1.0
  C  C1248  1  0.92203000  0.33192000  0.66743000  1.0
  C  C1249  1  0.66701000  0.43385000  0.80253000  1.0
  C  C1250  1  0.64561000  0.44408000  0.77362000  1.0
  C  C1251  1  0.64888000  0.43119000  0.79787000  1.0
  C  C1252  1  0.43055000  0.57760000  0.53908000  1.0
  C  C1253  1  0.27304000  0.63898000  0.60045000  1.0
  C  C1254  1  0.29461000  0.62397000  0.58545000  1.0
  C  C1255  1  0.14946000  0.68321000  0.59479000  1.0
  C  C1256  1  0.16936000  0.68773000  0.61780000  1.0
  C  C1257  1  0.16897000  0.68911000  0.59359000  1.0
  C  C1258  1  0.18830000  0.69542000  0.56932000  1.0
  C  C1259  1  0.04274000  0.81406000  0.79163000  1.0
  C  C1260  1  0.03742000  0.84064000  0.74695000  1.0
  C  C1261  1  0.03507000  0.81782000  0.77205000  1.0
  C  C1262  1  0.02678000  0.79855000  0.77610000  1.0
  C  C1263  1  0.13612000  0.83703000  0.73201000  1.0
  C  C1264  1  0.11196000  0.85596000  0.70039000  1.0
  C  C1265  1  0.13640000  0.84130000  0.70760000  1.0
  C  C1266  1  0.15916000  0.82319000  0.73848000  1.0
  C  C1267  1  0.20770000  0.79690000  0.72801000  1.0
  C  C1268  1  0.18328000  0.81325000  0.72073000  1.0
  C  C1269  1  0.16057000  0.83149000  0.68984000  1.0
  C  C1270  1  0.18353000  0.81778000  0.69626000  1.0
  C  C1271  1  0.22788000  0.71575000  0.67736000  1.0
  C  C1272  1  0.23724000  0.72480000  0.68637000  1.0
  C  C1273  1  0.10050000  0.67776000  0.75806000  1.0
  C  C1274  1  0.14300000  0.65834000  0.72696000  1.0
  C  C1275  1  0.12631000  0.66028000  0.75328000  1.0
  C  C1276  1  0.08577000  0.68111000  0.78250000  1.0
  C  C1277  1  0.07861000  0.92204000  0.66743000  1.0
  C  C1278  1  0.09661000  0.66701000  0.80253000  1.0
  C  C1279  1  0.13668000  0.64562000  0.77362000  1.0
  C  C1280  1  0.12205000  0.64889000  0.79787000  1.0
  C  C1281  1  0.45276000  0.53908000  0.57760000  1.0
  C  C1282  1  0.48753000  0.60045000  0.63898000  1.0
  C  C1283  1  0.49597000  0.58545000  0.62397000  1.0
  C  C1284  1  0.57254000  0.59479000  0.68321000  1.0
  C  C1285  1  0.52510000  0.61780000  0.68773000  1.0
  C  C1286  1  0.54834000  0.59359000  0.68911000  1.0
  C  C1287  1  0.54696000  0.56932000  0.69542000  1.0
  C  C1288  1  0.35157000  0.79163000  0.81406000  1.0
  C  C1289  1  0.37499000  0.74695000  0.84064000  1.0
  C  C1290  1  0.37507000  0.77205000  0.81782000  1.0
  C  C1291  1  0.39857000  0.77610000  0.79855000  1.0
  C  C1292  1  0.29485000  0.73201000  0.83703000  1.0
  C  C1293  1  0.33169000  0.70039000  0.85596000  1.0
  C  C1294  1  0.31470000  0.70760000  0.84130000  1.0
  C  C1295  1  0.27918000  0.73848000  0.82319000  1.0
  C  C1296  1  0.26739000  0.72801000  0.79690000  1.0
  C  C1297  1  0.28274000  0.72073000  0.81325000  1.0
  C  C1298  1  0.31810000  0.68984000  0.83149000  1.0
  C  C1299  1  0.30243000  0.69626000  0.81778000  1.0
  C  C1300  1  0.37901000  0.67736000  0.71575000  1.0
  C  C1301  1  0.35159000  0.68637000  0.72480000  1.0
  C  C1302  1  0.46368000  0.75806000  0.67776000  1.0
  C  C1303  1  0.47170000  0.72696000  0.65834000  1.0
  C  C1304  1  0.46013000  0.75328000  0.66028000  1.0
  C  C1305  1  0.45062000  0.78250000  0.68111000  1.0
  C  C1306  1  0.33191000  0.66743000  0.92204000  1.0
  C  C1307  1  0.43385000  0.80253000  0.66701000  1.0
  C  C1308  1  0.44407000  0.77362000  0.64562000  1.0
  C  C1309  1  0.43118000  0.79787000  0.64889000  1.0
  C  C1310  1  0.53907000  0.45277000  0.43056000  1.0
  C  C1311  1  0.60045000  0.48753000  0.27304000  1.0
  C  C1312  1  0.58545000  0.49597000  0.29461000  1.0
  C  C1313  1  0.59479000  0.57254000  0.14946000  1.0
  C  C1314  1  0.61779000  0.52511000  0.16937000  1.0
  C  C1315  1  0.59360000  0.54833000  0.16896000  1.0
  C  C1316  1  0.56932000  0.54696000  0.18830000  1.0
  C  C1317  1  0.79163000  0.35157000  0.04274000  1.0
  C  C1318  1  0.74695000  0.37499000  0.03742000  1.0
  C  C1319  1  0.77206000  0.37506000  0.03506000  1.0
  C  C1320  1  0.77610000  0.39857000  0.02678000  1.0
  C  C1321  1  0.73202000  0.29484000  0.13611000  1.0
  C  C1322  1  0.70039000  0.33169000  0.11196000  1.0
  C  C1323  1  0.70760000  0.31470000  0.13640000  1.0
  C  C1324  1  0.73849000  0.27917000  0.15915000  1.0
  C  C1325  1  0.72801000  0.26739000  0.20770000  1.0
  C  C1326  1  0.72073000  0.28274000  0.18328000  1.0
  C  C1327  1  0.68984000  0.31810000  0.16057000  1.0
  C  C1328  1  0.69626000  0.30243000  0.18353000  1.0
  C  C1329  1  0.67736000  0.37901000  0.22788000  1.0
  C  C1330  1  0.68637000  0.35159000  0.23724000  1.0
  C  C1331  1  0.75806000  0.46368000  0.10050000  1.0
  C  C1332  1  0.72696000  0.47170000  0.14300000  1.0
  C  C1333  1  0.75328000  0.46013000  0.12631000  1.0
  C  C1334  1  0.78250000  0.45062000  0.08577000  1.0
  C  C1335  1  0.66742000  0.33192000  0.07862000  1.0
  C  C1336  1  0.80253000  0.43385000  0.09661000  1.0
  C  C1337  1  0.77361000  0.44408000  0.13669000  1.0
  C  C1338  1  0.79786000  0.43119000  0.12206000  1.0
  C  C1339  1  0.57759000  0.43056000  0.45277000  1.0
  C  C1340  1  0.63898000  0.27304000  0.48753000  1.0
  C  C1341  1  0.62397000  0.29461000  0.49597000  1.0
  C  C1342  1  0.68321000  0.14946000  0.57254000  1.0
  C  C1343  1  0.68772000  0.16937000  0.52511000  1.0
  C  C1344  1  0.68912000  0.16896000  0.54833000  1.0
  C  C1345  1  0.69542000  0.18830000  0.54696000  1.0
  C  C1346  1  0.81406000  0.04274000  0.35157000  1.0
  C  C1347  1  0.84064000  0.03742000  0.37499000  1.0
  C  C1348  1  0.81783000  0.03506000  0.37506000  1.0
  C  C1349  1  0.79855000  0.02678000  0.39857000  1.0
  C  C1350  1  0.83704000  0.13611000  0.29484000  1.0
  C  C1351  1  0.85596000  0.11196000  0.33169000  1.0
  C  C1352  1  0.84130000  0.13640000  0.31470000  1.0
  C  C1353  1  0.82320000  0.15915000  0.27917000  1.0
  C  C1354  1  0.79690000  0.20770000  0.26739000  1.0
  C  C1355  1  0.81325000  0.18328000  0.28274000  1.0
  C  C1356  1  0.83149000  0.16057000  0.31810000  1.0
  C  C1357  1  0.81778000  0.18353000  0.30243000  1.0
  C  C1358  1  0.71575000  0.22788000  0.37901000  1.0
  C  C1359  1  0.72480000  0.23724000  0.35159000  1.0
  C  C1360  1  0.67776000  0.10050000  0.46368000  1.0
  C  C1361  1  0.65834000  0.14300000  0.47170000  1.0
  C  C1362  1  0.66028000  0.12631000  0.46013000  1.0
  C  C1363  1  0.68111000  0.08577000  0.45062000  1.0
  C  C1364  1  0.92203000  0.07862000  0.33192000  1.0
  C  C1365  1  0.66701000  0.09661000  0.43385000  1.0
  C  C1366  1  0.64561000  0.13669000  0.44408000  1.0
  C  C1367  1  0.64888000  0.12206000  0.43119000  1.0
  C  C1368  1  0.29724000  0.31944000  0.17240000  1.0
  C  C1369  1  0.26247000  0.47696000  0.11102000  1.0
  C  C1370  1  0.25403000  0.45539000  0.12603000  1.0
  C  C1371  1  0.17746000  0.60054000  0.06679000  1.0
  C  C1372  1  0.22490000  0.58063000  0.06227000  1.0
  C  C1373  1  0.20166000  0.58104000  0.06089000  1.0
  C  C1374  1  0.20304000  0.56170000  0.05458000  1.0
  C  C1375  1  0.39843000  0.70726000  0.93594000  1.0
  C  C1376  1  0.37501000  0.71258000  0.90936000  1.0
  C  C1377  1  0.37493000  0.71494000  0.93218000  1.0
  C  C1378  1  0.35143000  0.72322000  0.95145000  1.0
  C  C1379  1  0.45515000  0.61389000  0.91297000  1.0
  C  C1380  1  0.41831000  0.63804000  0.89404000  1.0
  C  C1381  1  0.43530000  0.61360000  0.90870000  1.0
  C  C1382  1  0.47082000  0.59085000  0.92681000  1.0
  C  C1383  1  0.48261000  0.54230000  0.95310000  1.0
  C  C1384  1  0.46726000  0.56672000  0.93675000  1.0
  C  C1385  1  0.43190000  0.58943000  0.91851000  1.0
  C  C1386  1  0.44757000  0.56647000  0.93222000  1.0
  C  C1387  1  0.37099000  0.52212000  0.03425000  1.0
  C  C1388  1  0.39841000  0.51276000  0.02520000  1.0
  C  C1389  1  0.28632000  0.64950000  0.07224000  1.0
  C  C1390  1  0.27830000  0.60700000  0.09166000  1.0
  C  C1391  1  0.28987000  0.62369000  0.08972000  1.0
  C  C1392  1  0.29938000  0.66423000  0.06889000  1.0
  C  C1393  1  0.41809000  0.67138000  0.82796000  1.0
  C  C1394  1  0.31615000  0.65339000  0.08299000  1.0
  C  C1395  1  0.30593000  0.61331000  0.10438000  1.0
  C  C1396  1  0.31882000  0.62794000  0.10111000  1.0
  C  C1397  1  0.31945000  0.29723000  0.21092000  1.0
  C  C1398  1  0.47696000  0.26247000  0.14955000  1.0
  C  C1399  1  0.45539000  0.25403000  0.16455000  1.0
  C  C1400  1  0.60054000  0.17746000  0.15521000  1.0
  C  C1401  1  0.58064000  0.22489000  0.13220000  1.0
  C  C1402  1  0.58103000  0.20167000  0.15641000  1.0
  C  C1403  1  0.56170000  0.20304000  0.18068000  1.0
  C  C1404  1  0.70726000  0.39843000  0.95837000  1.0
  C  C1405  1  0.71258000  0.37501000  0.00305000  1.0
  C  C1406  1  0.71493000  0.37494000  0.97795000  1.0
  C  C1407  1  0.72322000  0.35143000  0.97390000  1.0
  C  C1408  1  0.61388000  0.45516000  0.01799000  1.0
  C  C1409  1  0.63804000  0.41831000  0.04961000  1.0
  C  C1410  1  0.61360000  0.43530000  0.04240000  1.0
  C  C1411  1  0.59084000  0.47083000  0.01152000  1.0
  C  C1412  1  0.54230000  0.48261000  0.02199000  1.0
  C  C1413  1  0.56672000  0.46726000  0.02927000  1.0
  C  C1414  1  0.58943000  0.43190000  0.06016000  1.0
  C  C1415  1  0.56647000  0.44757000  0.05374000  1.0
  C  C1416  1  0.52212000  0.37099000  0.07264000  1.0
  C  C1417  1  0.51276000  0.39841000  0.06363000  1.0
  C  C1418  1  0.64950000  0.28632000  0.99194000  1.0
  C  C1419  1  0.60700000  0.27830000  0.02304000  1.0
  C  C1420  1  0.62369000  0.28987000  0.99672000  1.0
  C  C1421  1  0.66423000  0.29938000  0.96750000  1.0
  C  C1422  1  0.67139000  0.41808000  0.08257000  1.0
  C  C1423  1  0.65339000  0.31615000  0.94747000  1.0
  C  C1424  1  0.61332000  0.30592000  0.97638000  1.0
  C  C1425  1  0.62795000  0.31881000  0.95213000  1.0
  C  C1426  1  0.17241000  0.21092000  0.29723000  1.0
  C  C1427  1  0.11102000  0.14955000  0.26247000  1.0
  C  C1428  1  0.12603000  0.16455000  0.25403000  1.0
  C  C1429  1  0.06679000  0.15521000  0.17746000  1.0
  C  C1430  1  0.06228000  0.13220000  0.22489000  1.0
  C  C1431  1  0.06088000  0.15641000  0.20167000  1.0
  C  C1432  1  0.05458000  0.18068000  0.20304000  1.0
  C  C1433  1  0.93594000  0.95837000  0.39843000  1.0
  C  C1434  1  0.90936000  0.00305000  0.37501000  1.0
  C  C1435  1  0.93217000  0.97795000  0.37494000  1.0
  C  C1436  1  0.95145000  0.97390000  0.35143000  1.0
  C  C1437  1  0.91296000  0.01799000  0.45516000  1.0
  C  C1438  1  0.89404000  0.04961000  0.41831000  1.0
  C  C1439  1  0.90870000  0.04240000  0.43530000  1.0
  C  C1440  1  0.92680000  0.01152000  0.47083000  1.0
  C  C1441  1  0.95310000  0.02199000  0.48261000  1.0
  C  C1442  1  0.93675000  0.02927000  0.46726000  1.0
  C  C1443  1  0.91851000  0.06016000  0.43190000  1.0
  C  C1444  1  0.93222000  0.05374000  0.44757000  1.0
  C  C1445  1  0.03425000  0.07264000  0.37099000  1.0
  C  C1446  1  0.02520000  0.06363000  0.39841000  1.0
  C  C1447  1  0.07224000  0.99194000  0.28632000  1.0
  C  C1448  1  0.09166000  0.02304000  0.27830000  1.0
  C  C1449  1  0.08972000  0.99672000  0.28987000  1.0
  C  C1450  1  0.06889000  0.96750000  0.29938000  1.0
  C  C1451  1  0.82797000  0.08257000  0.41808000  1.0
  C  C1452  1  0.08299000  0.94747000  0.31615000  1.0
  C  C1453  1  0.10439000  0.97638000  0.30592000  1.0
  C  C1454  1  0.10112000  0.95213000  0.31881000  1.0
  C  C1455  1  0.21093000  0.17240000  0.31944000  1.0
  C  C1456  1  0.14955000  0.11102000  0.47696000  1.0
  C  C1457  1  0.16455000  0.12603000  0.45539000  1.0
  C  C1458  1  0.15521000  0.06679000  0.60054000  1.0
  C  C1459  1  0.13221000  0.06227000  0.58063000  1.0
  C  C1460  1  0.15640000  0.06089000  0.58104000  1.0
  C  C1461  1  0.18068000  0.05458000  0.56170000  1.0
  C  C1462  1  0.95837000  0.93594000  0.70726000  1.0
  C  C1463  1  0.00305000  0.90936000  0.71258000  1.0
  C  C1464  1  0.97794000  0.93218000  0.71494000  1.0
  C  C1465  1  0.97390000  0.95145000  0.72322000  1.0
  C  C1466  1  0.01798000  0.91297000  0.61389000  1.0
  C  C1467  1  0.04961000  0.89404000  0.63804000  1.0
  C  C1468  1  0.04240000  0.90870000  0.61360000  1.0
  C  C1469  1  0.01151000  0.92681000  0.59085000  1.0
  C  C1470  1  0.02199000  0.95310000  0.54230000  1.0
  C  C1471  1  0.02927000  0.93675000  0.56672000  1.0
  C  C1472  1  0.06016000  0.91851000  0.58943000  1.0
  C  C1473  1  0.05374000  0.93222000  0.56647000  1.0
  C  C1474  1  0.07264000  0.03425000  0.52212000  1.0
  C  C1475  1  0.06363000  0.02520000  0.51276000  1.0
  C  C1476  1  0.99194000  0.07224000  0.64950000  1.0
  C  C1477  1  0.02304000  0.09166000  0.60700000  1.0
  C  C1478  1  0.99672000  0.08972000  0.62369000  1.0
  C  C1479  1  0.96750000  0.06889000  0.66423000  1.0
  C  C1480  1  0.08258000  0.82796000  0.67138000  1.0
  C  C1481  1  0.94747000  0.08299000  0.65339000  1.0
  C  C1482  1  0.97639000  0.10438000  0.61331000  1.0
  C  C1483  1  0.95214000  0.10111000  0.62794000  1.0
  C  C1484  1  0.21093000  0.31944000  0.29723000  1.0
  C  C1485  1  0.14955000  0.47696000  0.26247000  1.0
  C  C1486  1  0.16455000  0.45539000  0.25403000  1.0
  C  C1487  1  0.15521000  0.60054000  0.17746000  1.0
  C  C1488  1  0.13221000  0.58063000  0.22489000  1.0
  C  C1489  1  0.15640000  0.58104000  0.20167000  1.0
  C  C1490  1  0.18068000  0.56170000  0.20304000  1.0
  C  C1491  1  0.95837000  0.70726000  0.39843000  1.0
  C  C1492  1  0.00305000  0.71258000  0.37501000  1.0
  C  C1493  1  0.97794000  0.71494000  0.37494000  1.0
  C  C1494  1  0.97390000  0.72322000  0.35143000  1.0
  C  C1495  1  0.01798000  0.61389000  0.45516000  1.0
  C  C1496  1  0.04961000  0.63804000  0.41831000  1.0
  C  C1497  1  0.04240000  0.61360000  0.43530000  1.0
  C  C1498  1  0.01151000  0.59085000  0.47083000  1.0
  C  C1499  1  0.02199000  0.54230000  0.48261000  1.0
  C  C1500  1  0.02927000  0.56672000  0.46726000  1.0
  C  C1501  1  0.06016000  0.58943000  0.43190000  1.0
  C  C1502  1  0.05374000  0.56647000  0.44757000  1.0
  C  C1503  1  0.07264000  0.52212000  0.37099000  1.0
  C  C1504  1  0.06363000  0.51276000  0.39841000  1.0
  C  C1505  1  0.99194000  0.64950000  0.28632000  1.0
  C  C1506  1  0.02304000  0.60700000  0.27830000  1.0
  C  C1507  1  0.99672000  0.62369000  0.28987000  1.0
  C  C1508  1  0.96750000  0.66423000  0.29938000  1.0
  C  C1509  1  0.08258000  0.67138000  0.41808000  1.0
  C  C1510  1  0.94747000  0.65339000  0.31615000  1.0
  C  C1511  1  0.97639000  0.61331000  0.30592000  1.0
  C  C1512  1  0.95214000  0.62794000  0.31881000  1.0
  C  C1513  1  0.17241000  0.29723000  0.31944000  1.0
  C  C1514  1  0.11102000  0.26247000  0.47696000  1.0
  C  C1515  1  0.12603000  0.25403000  0.45539000  1.0
  C  C1516  1  0.06679000  0.17746000  0.60054000  1.0
  C  C1517  1  0.06228000  0.22489000  0.58063000  1.0
  C  C1518  1  0.06088000  0.20167000  0.58104000  1.0
  C  C1519  1  0.05458000  0.20304000  0.56170000  1.0
  C  C1520  1  0.93594000  0.39843000  0.70726000  1.0
  C  C1521  1  0.90936000  0.37501000  0.71258000  1.0
  C  C1522  1  0.93217000  0.37494000  0.71494000  1.0
  C  C1523  1  0.95145000  0.35143000  0.72322000  1.0
  C  C1524  1  0.91296000  0.45516000  0.61389000  1.0
  C  C1525  1  0.89404000  0.41831000  0.63804000  1.0
  C  C1526  1  0.90870000  0.43530000  0.61360000  1.0
  C  C1527  1  0.92680000  0.47083000  0.59085000  1.0
  C  C1528  1  0.95310000  0.48261000  0.54230000  1.0
  C  C1529  1  0.93675000  0.46726000  0.56672000  1.0
  C  C1530  1  0.91851000  0.43190000  0.58943000  1.0
  C  C1531  1  0.93222000  0.44757000  0.56647000  1.0
  C  C1532  1  0.03425000  0.37099000  0.52212000  1.0
  C  C1533  1  0.02520000  0.39841000  0.51276000  1.0
  C  C1534  1  0.07224000  0.28632000  0.64950000  1.0
  C  C1535  1  0.09166000  0.27830000  0.60700000  1.0
  C  C1536  1  0.08972000  0.28987000  0.62369000  1.0
  C  C1537  1  0.06889000  0.29938000  0.66423000  1.0
  C  C1538  1  0.82797000  0.41808000  0.67138000  1.0
  C  C1539  1  0.08299000  0.31615000  0.65339000  1.0
  C  C1540  1  0.10439000  0.30592000  0.61331000  1.0
  C  C1541  1  0.10112000  0.31881000  0.62794000  1.0
  C  C1542  1  0.31945000  0.21092000  0.17240000  1.0
  C  C1543  1  0.47696000  0.14955000  0.11102000  1.0
  C  C1544  1  0.45539000  0.16455000  0.12603000  1.0
  C  C1545  1  0.60054000  0.15521000  0.06679000  1.0
  C  C1546  1  0.58064000  0.13220000  0.06227000  1.0
  C  C1547  1  0.58103000  0.15641000  0.06089000  1.0
  C  C1548  1  0.56170000  0.18068000  0.05458000  1.0
  C  C1549  1  0.70726000  0.95837000  0.93594000  1.0
  C  C1550  1  0.71258000  0.00305000  0.90936000  1.0
  C  C1551  1  0.71493000  0.97795000  0.93218000  1.0
  C  C1552  1  0.72322000  0.97390000  0.95145000  1.0
  C  C1553  1  0.61388000  0.01799000  0.91297000  1.0
  C  C1554  1  0.63804000  0.04961000  0.89404000  1.0
  C  C1555  1  0.61360000  0.04240000  0.90870000  1.0
  C  C1556  1  0.59084000  0.01152000  0.92681000  1.0
  C  C1557  1  0.54230000  0.02199000  0.95310000  1.0
  C  C1558  1  0.56672000  0.02927000  0.93675000  1.0
  C  C1559  1  0.58943000  0.06016000  0.91851000  1.0
  C  C1560  1  0.56647000  0.05374000  0.93222000  1.0
  C  C1561  1  0.52212000  0.07264000  0.03425000  1.0
  C  C1562  1  0.51276000  0.06363000  0.02520000  1.0
  C  C1563  1  0.64950000  0.99194000  0.07224000  1.0
  C  C1564  1  0.60700000  0.02304000  0.09166000  1.0
  C  C1565  1  0.62369000  0.99672000  0.08972000  1.0
  C  C1566  1  0.66423000  0.96750000  0.06889000  1.0
  C  C1567  1  0.67139000  0.08257000  0.82796000  1.0
  C  C1568  1  0.65339000  0.94747000  0.08299000  1.0
  C  C1569  1  0.61332000  0.97638000  0.10438000  1.0
  C  C1570  1  0.62795000  0.95213000  0.10111000  1.0
  C  C1571  1  0.29724000  0.17240000  0.21092000  1.0
  C  C1572  1  0.26247000  0.11102000  0.14955000  1.0
  C  C1573  1  0.25403000  0.12603000  0.16455000  1.0
  C  C1574  1  0.17746000  0.06679000  0.15521000  1.0
  C  C1575  1  0.22490000  0.06227000  0.13220000  1.0
  C  C1576  1  0.20166000  0.06089000  0.15641000  1.0
  C  C1577  1  0.20304000  0.05458000  0.18068000  1.0
  C  C1578  1  0.39843000  0.93594000  0.95837000  1.0
  C  C1579  1  0.37501000  0.90936000  0.00305000  1.0
  C  C1580  1  0.37493000  0.93218000  0.97795000  1.0
  C  C1581  1  0.35143000  0.95145000  0.97390000  1.0
  C  C1582  1  0.45515000  0.91297000  0.01799000  1.0
  C  C1583  1  0.41831000  0.89404000  0.04961000  1.0
  C  C1584  1  0.43530000  0.90870000  0.04240000  1.0
  C  C1585  1  0.47082000  0.92681000  0.01152000  1.0
  C  C1586  1  0.48261000  0.95310000  0.02199000  1.0
  C  C1587  1  0.46726000  0.93675000  0.02927000  1.0
  C  C1588  1  0.43190000  0.91851000  0.06016000  1.0
  C  C1589  1  0.44757000  0.93222000  0.05374000  1.0
  C  C1590  1  0.37099000  0.03425000  0.07264000  1.0
  C  C1591  1  0.39841000  0.02520000  0.06363000  1.0
  C  C1592  1  0.28632000  0.07224000  0.99194000  1.0
  C  C1593  1  0.27830000  0.09166000  0.02304000  1.0
  C  C1594  1  0.28987000  0.08972000  0.99672000  1.0
  C  C1595  1  0.29938000  0.06889000  0.96750000  1.0
  C  C1596  1  0.41809000  0.82796000  0.08257000  1.0
  C  C1597  1  0.31615000  0.08299000  0.94747000  1.0
  C  C1598  1  0.30593000  0.10438000  0.97638000  1.0
  C  C1599  1  0.31882000  0.10111000  0.95213000  1.0
  C  C1600  1  0.17241000  0.31944000  0.21092000  1.0
  C  C1601  1  0.11102000  0.47696000  0.14955000  1.0
  C  C1602  1  0.12603000  0.45539000  0.16455000  1.0
  C  C1603  1  0.06679000  0.60054000  0.15521000  1.0
  C  C1604  1  0.06228000  0.58063000  0.13220000  1.0
  C  C1605  1  0.06088000  0.58104000  0.15641000  1.0
  C  C1606  1  0.05458000  0.56170000  0.18068000  1.0
  C  C1607  1  0.93594000  0.70726000  0.95837000  1.0
  C  C1608  1  0.90936000  0.71258000  0.00305000  1.0
  C  C1609  1  0.93217000  0.71494000  0.97795000  1.0
  C  C1610  1  0.95145000  0.72322000  0.97390000  1.0
  C  C1611  1  0.91296000  0.61389000  0.01799000  1.0
  C  C1612  1  0.89404000  0.63804000  0.04961000  1.0
  C  C1613  1  0.90870000  0.61360000  0.04240000  1.0
  C  C1614  1  0.92680000  0.59085000  0.01152000  1.0
  C  C1615  1  0.95310000  0.54230000  0.02199000  1.0
  C  C1616  1  0.93675000  0.56672000  0.02927000  1.0
  C  C1617  1  0.91851000  0.58943000  0.06016000  1.0
  C  C1618  1  0.93222000  0.56647000  0.05374000  1.0
  C  C1619  1  0.03425000  0.52212000  0.07264000  1.0
  C  C1620  1  0.02520000  0.51276000  0.06363000  1.0
  C  C1621  1  0.07224000  0.64950000  0.99194000  1.0
  C  C1622  1  0.09166000  0.60700000  0.02304000  1.0
  C  C1623  1  0.08972000  0.62369000  0.99672000  1.0
  C  C1624  1  0.06889000  0.66423000  0.96750000  1.0
  C  C1625  1  0.82797000  0.67138000  0.08257000  1.0
  C  C1626  1  0.08299000  0.65339000  0.94747000  1.0
  C  C1627  1  0.10439000  0.61331000  0.97638000  1.0
  C  C1628  1  0.10112000  0.62794000  0.95213000  1.0
  C  C1629  1  0.21093000  0.29723000  0.17240000  1.0
  C  C1630  1  0.14955000  0.26247000  0.11102000  1.0
  C  C1631  1  0.16455000  0.25403000  0.12603000  1.0
  C  C1632  1  0.15521000  0.17746000  0.06679000  1.0
  C  C1633  1  0.13221000  0.22489000  0.06227000  1.0
  C  C1634  1  0.15640000  0.20167000  0.06089000  1.0
  C  C1635  1  0.18068000  0.20304000  0.05458000  1.0
  C  C1636  1  0.95837000  0.39843000  0.93594000  1.0
  C  C1637  1  0.00305000  0.37501000  0.90936000  1.0
  C  C1638  1  0.97794000  0.37494000  0.93218000  1.0
  C  C1639  1  0.97390000  0.35143000  0.95145000  1.0
  C  C1640  1  0.01798000  0.45516000  0.91297000  1.0
  C  C1641  1  0.04961000  0.41831000  0.89404000  1.0
  C  C1642  1  0.04240000  0.43530000  0.90870000  1.0
  C  C1643  1  0.01151000  0.47083000  0.92681000  1.0
  C  C1644  1  0.02199000  0.48261000  0.95310000  1.0
  C  C1645  1  0.02927000  0.46726000  0.93675000  1.0
  C  C1646  1  0.06016000  0.43190000  0.91851000  1.0
  C  C1647  1  0.05374000  0.44757000  0.93222000  1.0
  C  C1648  1  0.07264000  0.37099000  0.03425000  1.0
  C  C1649  1  0.06363000  0.39841000  0.02520000  1.0
  C  C1650  1  0.99194000  0.28632000  0.07224000  1.0
  C  C1651  1  0.02304000  0.27830000  0.09166000  1.0
  C  C1652  1  0.99672000  0.28987000  0.08972000  1.0
  C  C1653  1  0.96750000  0.29938000  0.06889000  1.0
  C  C1654  1  0.08258000  0.41808000  0.82796000  1.0
  C  C1655  1  0.94747000  0.31615000  0.08299000  1.0
  C  C1656  1  0.97639000  0.30592000  0.10438000  1.0
  C  C1657  1  0.95214000  0.31881000  0.10111000  1.0
  C  C1658  1  0.29724000  0.21092000  0.31944000  1.0
  C  C1659  1  0.26247000  0.14955000  0.47696000  1.0
  C  C1660  1  0.25403000  0.16455000  0.45539000  1.0
  C  C1661  1  0.17746000  0.15521000  0.60054000  1.0
  C  C1662  1  0.22490000  0.13220000  0.58063000  1.0
  C  C1663  1  0.20166000  0.15641000  0.58104000  1.0
  C  C1664  1  0.20304000  0.18068000  0.56170000  1.0
  C  C1665  1  0.39843000  0.95837000  0.70726000  1.0
  C  C1666  1  0.37501000  0.00305000  0.71258000  1.0
  C  C1667  1  0.37493000  0.97795000  0.71494000  1.0
  C  C1668  1  0.35143000  0.97390000  0.72322000  1.0
  C  C1669  1  0.45515000  0.01799000  0.61389000  1.0
  C  C1670  1  0.41831000  0.04961000  0.63804000  1.0
  C  C1671  1  0.43530000  0.04240000  0.61360000  1.0
  C  C1672  1  0.47082000  0.01152000  0.59085000  1.0
  C  C1673  1  0.48261000  0.02199000  0.54230000  1.0
  C  C1674  1  0.46726000  0.02927000  0.56672000  1.0
  C  C1675  1  0.43190000  0.06016000  0.58943000  1.0
  C  C1676  1  0.44757000  0.05374000  0.56647000  1.0
  C  C1677  1  0.37099000  0.07264000  0.52212000  1.0
  C  C1678  1  0.39841000  0.06363000  0.51276000  1.0
  C  C1679  1  0.28632000  0.99194000  0.64950000  1.0
  C  C1680  1  0.27830000  0.02304000  0.60700000  1.0
  C  C1681  1  0.28987000  0.99672000  0.62369000  1.0
  C  C1682  1  0.29938000  0.96750000  0.66423000  1.0
  C  C1683  1  0.41809000  0.08257000  0.67138000  1.0
  C  C1684  1  0.31615000  0.94747000  0.65339000  1.0
  C  C1685  1  0.30593000  0.97638000  0.61331000  1.0
  C  C1686  1  0.31882000  0.95213000  0.62794000  1.0
  C  C1687  1  0.31945000  0.17240000  0.29723000  1.0
  C  C1688  1  0.47696000  0.11102000  0.26247000  1.0
  C  C1689  1  0.45539000  0.12603000  0.25403000  1.0
  C  C1690  1  0.60054000  0.06679000  0.17746000  1.0
  C  C1691  1  0.58064000  0.06227000  0.22489000  1.0
  C  C1692  1  0.58103000  0.06089000  0.20167000  1.0
  C  C1693  1  0.56170000  0.05458000  0.20304000  1.0
  C  C1694  1  0.70726000  0.93594000  0.39843000  1.0
  C  C1695  1  0.71258000  0.90936000  0.37501000  1.0
  C  C1696  1  0.71493000  0.93218000  0.37494000  1.0
  C  C1697  1  0.72322000  0.95145000  0.35143000  1.0
  C  C1698  1  0.61388000  0.91297000  0.45516000  1.0
  C  C1699  1  0.63804000  0.89404000  0.41831000  1.0
  C  C1700  1  0.61360000  0.90870000  0.43530000  1.0
  C  C1701  1  0.59084000  0.92681000  0.47083000  1.0
  C  C1702  1  0.54230000  0.95310000  0.48261000  1.0
  C  C1703  1  0.56672000  0.93675000  0.46726000  1.0
  C  C1704  1  0.58943000  0.91851000  0.43190000  1.0
  C  C1705  1  0.56647000  0.93222000  0.44757000  1.0
  C  C1706  1  0.52212000  0.03425000  0.37099000  1.0
  C  C1707  1  0.51276000  0.02520000  0.39841000  1.0
  C  C1708  1  0.64950000  0.07224000  0.28632000  1.0
  C  C1709  1  0.60700000  0.09166000  0.27830000  1.0
  C  C1710  1  0.62369000  0.08972000  0.28987000  1.0
  C  C1711  1  0.66423000  0.06889000  0.29938000  1.0
  C  C1712  1  0.67139000  0.82796000  0.41808000  1.0
  C  C1713  1  0.65339000  0.08299000  0.31615000  1.0
  C  C1714  1  0.61332000  0.10438000  0.30592000  1.0
  C  C1715  1  0.62795000  0.10111000  0.31881000  1.0
  C  C1716  1  0.31945000  0.29723000  0.17240000  1.0
  C  C1717  1  0.47696000  0.26247000  0.11102000  1.0
  C  C1718  1  0.45539000  0.25403000  0.12603000  1.0
  C  C1719  1  0.60054000  0.17746000  0.06679000  1.0
  C  C1720  1  0.58064000  0.22489000  0.06227000  1.0
  C  C1721  1  0.58103000  0.20167000  0.06089000  1.0
  C  C1722  1  0.56170000  0.20304000  0.05458000  1.0
  C  C1723  1  0.70726000  0.39843000  0.93594000  1.0
  C  C1724  1  0.71258000  0.37501000  0.90936000  1.0
  C  C1725  1  0.71493000  0.37494000  0.93218000  1.0
  C  C1726  1  0.72322000  0.35143000  0.95145000  1.0
  C  C1727  1  0.61388000  0.45516000  0.91297000  1.0
  C  C1728  1  0.63804000  0.41831000  0.89404000  1.0
  C  C1729  1  0.61360000  0.43530000  0.90870000  1.0
  C  C1730  1  0.59084000  0.47083000  0.92681000  1.0
  C  C1731  1  0.54230000  0.48261000  0.95310000  1.0
  C  C1732  1  0.56672000  0.46726000  0.93675000  1.0
  C  C1733  1  0.58943000  0.43190000  0.91851000  1.0
  C  C1734  1  0.56647000  0.44757000  0.93222000  1.0
  C  C1735  1  0.52212000  0.37099000  0.03425000  1.0
  C  C1736  1  0.51276000  0.39841000  0.02520000  1.0
  C  C1737  1  0.64950000  0.28632000  0.07224000  1.0
  C  C1738  1  0.60700000  0.27830000  0.09166000  1.0
  C  C1739  1  0.62369000  0.28987000  0.08972000  1.0
  C  C1740  1  0.66423000  0.29938000  0.06889000  1.0
  C  C1741  1  0.67139000  0.41808000  0.82796000  1.0
  C  C1742  1  0.65339000  0.31615000  0.08299000  1.0
  C  C1743  1  0.61332000  0.30592000  0.10438000  1.0
  C  C1744  1  0.62795000  0.31881000  0.10111000  1.0
  C  C1745  1  0.29724000  0.31944000  0.21092000  1.0
  C  C1746  1  0.26247000  0.47696000  0.14955000  1.0
  C  C1747  1  0.25403000  0.45539000  0.16455000  1.0
  C  C1748  1  0.17746000  0.60054000  0.15521000  1.0
  C  C1749  1  0.22490000  0.58063000  0.13220000  1.0
  C  C1750  1  0.20166000  0.58104000  0.15641000  1.0
  C  C1751  1  0.20304000  0.56170000  0.18068000  1.0
  C  C1752  1  0.39843000  0.70726000  0.95837000  1.0
  C  C1753  1  0.37501000  0.71258000  0.00305000  1.0
  C  C1754  1  0.37493000  0.71494000  0.97795000  1.0
  C  C1755  1  0.35143000  0.72322000  0.97390000  1.0
  C  C1756  1  0.45515000  0.61389000  0.01799000  1.0
  C  C1757  1  0.41831000  0.63804000  0.04961000  1.0
  C  C1758  1  0.43530000  0.61360000  0.04240000  1.0
  C  C1759  1  0.47082000  0.59085000  0.01152000  1.0
  C  C1760  1  0.48261000  0.54230000  0.02199000  1.0
  C  C1761  1  0.46726000  0.56672000  0.02927000  1.0
  C  C1762  1  0.43190000  0.58943000  0.06016000  1.0
  C  C1763  1  0.44757000  0.56647000  0.05374000  1.0
  C  C1764  1  0.37099000  0.52212000  0.07264000  1.0
  C  C1765  1  0.39841000  0.51276000  0.06363000  1.0
  C  C1766  1  0.28632000  0.64950000  0.99194000  1.0
  C  C1767  1  0.27830000  0.60700000  0.02304000  1.0
  C  C1768  1  0.28987000  0.62369000  0.99672000  1.0
  C  C1769  1  0.29938000  0.66423000  0.96750000  1.0
  C  C1770  1  0.41809000  0.67138000  0.08257000  1.0
  C  C1771  1  0.31615000  0.65339000  0.94747000  1.0
  C  C1772  1  0.30593000  0.61331000  0.97638000  1.0
  C  C1773  1  0.31882000  0.62794000  0.95213000  1.0
  C  C1774  1  0.21093000  0.17240000  0.29723000  1.0
  C  C1775  1  0.14955000  0.11102000  0.26247000  1.0
  C  C1776  1  0.16455000  0.12603000  0.25403000  1.0
  C  C1777  1  0.15521000  0.06679000  0.17746000  1.0
  C  C1778  1  0.13221000  0.06227000  0.22489000  1.0
  C  C1779  1  0.15640000  0.06089000  0.20167000  1.0
  C  C1780  1  0.18068000  0.05458000  0.20304000  1.0
  C  C1781  1  0.95837000  0.93594000  0.39843000  1.0
  C  C1782  1  0.00305000  0.90936000  0.37501000  1.0
  C  C1783  1  0.97794000  0.93218000  0.37494000  1.0
  C  C1784  1  0.97390000  0.95145000  0.35143000  1.0
  C  C1785  1  0.01798000  0.91297000  0.45516000  1.0
  C  C1786  1  0.04961000  0.89404000  0.41831000  1.0
  C  C1787  1  0.04240000  0.90870000  0.43530000  1.0
  C  C1788  1  0.01151000  0.92681000  0.47083000  1.0
  C  C1789  1  0.02199000  0.95310000  0.48261000  1.0
  C  C1790  1  0.02927000  0.93675000  0.46726000  1.0
  C  C1791  1  0.06016000  0.91851000  0.43190000  1.0
  C  C1792  1  0.05374000  0.93222000  0.44757000  1.0
  C  C1793  1  0.07264000  0.03425000  0.37099000  1.0
  C  C1794  1  0.06363000  0.02520000  0.39841000  1.0
  C  C1795  1  0.99194000  0.07224000  0.28632000  1.0
  C  C1796  1  0.02304000  0.09166000  0.27830000  1.0
  C  C1797  1  0.99672000  0.08972000  0.28987000  1.0
  C  C1798  1  0.96750000  0.06889000  0.29938000  1.0
  C  C1799  1  0.08258000  0.82796000  0.41808000  1.0
  C  C1800  1  0.94747000  0.08299000  0.31615000  1.0
  C  C1801  1  0.97639000  0.10438000  0.30592000  1.0
  C  C1802  1  0.95214000  0.10111000  0.31881000  1.0
  C  C1803  1  0.17241000  0.21092000  0.31944000  1.0
  C  C1804  1  0.11102000  0.14955000  0.47696000  1.0
  C  C1805  1  0.12603000  0.16455000  0.45539000  1.0
  C  C1806  1  0.06679000  0.15521000  0.60054000  1.0
  C  C1807  1  0.06228000  0.13220000  0.58063000  1.0
  C  C1808  1  0.06088000  0.15641000  0.58104000  1.0
  C  C1809  1  0.05458000  0.18068000  0.56170000  1.0
  C  C1810  1  0.93594000  0.95837000  0.70726000  1.0
  C  C1811  1  0.90936000  0.00305000  0.71258000  1.0
  C  C1812  1  0.93217000  0.97795000  0.71494000  1.0
  C  C1813  1  0.95145000  0.97390000  0.72322000  1.0
  C  C1814  1  0.91296000  0.01799000  0.61389000  1.0
  C  C1815  1  0.89404000  0.04961000  0.63804000  1.0
  C  C1816  1  0.90870000  0.04240000  0.61360000  1.0
  C  C1817  1  0.92680000  0.01152000  0.59085000  1.0
  C  C1818  1  0.95310000  0.02199000  0.54230000  1.0
  C  C1819  1  0.93675000  0.02927000  0.56672000  1.0
  C  C1820  1  0.91851000  0.06016000  0.58943000  1.0
  C  C1821  1  0.93222000  0.05374000  0.56647000  1.0
  C  C1822  1  0.03425000  0.07264000  0.52212000  1.0
  C  C1823  1  0.02520000  0.06363000  0.51276000  1.0
  C  C1824  1  0.07224000  0.99194000  0.64950000  1.0
  C  C1825  1  0.09166000  0.02304000  0.60700000  1.0
  C  C1826  1  0.08972000  0.99672000  0.62369000  1.0
  C  C1827  1  0.06889000  0.96750000  0.66423000  1.0
  C  C1828  1  0.82797000  0.08257000  0.67138000  1.0
  C  C1829  1  0.08299000  0.94747000  0.65339000  1.0
  C  C1830  1  0.10439000  0.97638000  0.61331000  1.0
  C  C1831  1  0.10112000  0.95213000  0.62794000  1.0
  C  C1832  1  0.31945000  0.21092000  0.29723000  1.0
  C  C1833  1  0.47696000  0.14955000  0.26247000  1.0
  C  C1834  1  0.45539000  0.16455000  0.25403000  1.0
  C  C1835  1  0.60054000  0.15521000  0.17746000  1.0
  C  C1836  1  0.58064000  0.13220000  0.22489000  1.0
  C  C1837  1  0.58103000  0.15641000  0.20167000  1.0
  C  C1838  1  0.56170000  0.18068000  0.20304000  1.0
  C  C1839  1  0.70726000  0.95837000  0.39843000  1.0
  C  C1840  1  0.71258000  0.00305000  0.37501000  1.0
  C  C1841  1  0.71493000  0.97795000  0.37494000  1.0
  C  C1842  1  0.72322000  0.97390000  0.35143000  1.0
  C  C1843  1  0.61388000  0.01799000  0.45516000  1.0
  C  C1844  1  0.63804000  0.04961000  0.41831000  1.0
  C  C1845  1  0.61360000  0.04240000  0.43530000  1.0
  C  C1846  1  0.59084000  0.01152000  0.47083000  1.0
  C  C1847  1  0.54230000  0.02199000  0.48261000  1.0
  C  C1848  1  0.56672000  0.02927000  0.46726000  1.0
  C  C1849  1  0.58943000  0.06016000  0.43190000  1.0
  C  C1850  1  0.56647000  0.05374000  0.44757000  1.0
  C  C1851  1  0.52212000  0.07264000  0.37099000  1.0
  C  C1852  1  0.51276000  0.06363000  0.39841000  1.0
  C  C1853  1  0.64950000  0.99194000  0.28632000  1.0
  C  C1854  1  0.60700000  0.02304000  0.27830000  1.0
  C  C1855  1  0.62369000  0.99672000  0.28987000  1.0
  C  C1856  1  0.66423000  0.96750000  0.29938000  1.0
  C  C1857  1  0.67139000  0.08257000  0.41808000  1.0
  C  C1858  1  0.65339000  0.94747000  0.31615000  1.0
  C  C1859  1  0.61332000  0.97638000  0.30592000  1.0
  C  C1860  1  0.62795000  0.95213000  0.31881000  1.0
  C  C1861  1  0.29724000  0.17240000  0.31944000  1.0
  C  C1862  1  0.26247000  0.11102000  0.47696000  1.0
  C  C1863  1  0.25403000  0.12603000  0.45539000  1.0
  C  C1864  1  0.17746000  0.06679000  0.60054000  1.0
  C  C1865  1  0.22490000  0.06227000  0.58063000  1.0
  C  C1866  1  0.20166000  0.06089000  0.58104000  1.0
  C  C1867  1  0.20304000  0.05458000  0.56170000  1.0
  C  C1868  1  0.39843000  0.93594000  0.70726000  1.0
  C  C1869  1  0.37501000  0.90936000  0.71258000  1.0
  C  C1870  1  0.37493000  0.93218000  0.71494000  1.0
  C  C1871  1  0.35143000  0.95145000  0.72322000  1.0
  C  C1872  1  0.45515000  0.91297000  0.61389000  1.0
  C  C1873  1  0.41831000  0.89404000  0.63804000  1.0
  C  C1874  1  0.43530000  0.90870000  0.61360000  1.0
  C  C1875  1  0.47082000  0.92681000  0.59085000  1.0
  C  C1876  1  0.48261000  0.95310000  0.54230000  1.0
  C  C1877  1  0.46726000  0.93675000  0.56672000  1.0
  C  C1878  1  0.43190000  0.91851000  0.58943000  1.0
  C  C1879  1  0.44757000  0.93222000  0.56647000  1.0
  C  C1880  1  0.37099000  0.03425000  0.52212000  1.0
  C  C1881  1  0.39841000  0.02520000  0.51276000  1.0
  C  C1882  1  0.28632000  0.07224000  0.64950000  1.0
  C  C1883  1  0.27830000  0.09166000  0.60700000  1.0
  C  C1884  1  0.28987000  0.08972000  0.62369000  1.0
  C  C1885  1  0.29938000  0.06889000  0.66423000  1.0
  C  C1886  1  0.41809000  0.82796000  0.67138000  1.0
  C  C1887  1  0.31615000  0.08299000  0.65339000  1.0
  C  C1888  1  0.30593000  0.10438000  0.61331000  1.0
  C  C1889  1  0.31882000  0.10111000  0.62794000  1.0
  C  C1890  1  0.21093000  0.31944000  0.17240000  1.0
  C  C1891  1  0.14955000  0.47696000  0.11102000  1.0
  C  C1892  1  0.16455000  0.45539000  0.12603000  1.0
  C  C1893  1  0.15521000  0.60054000  0.06679000  1.0
  C  C1894  1  0.13221000  0.58063000  0.06227000  1.0
  C  C1895  1  0.15640000  0.58104000  0.06089000  1.0
  C  C1896  1  0.18068000  0.56170000  0.05458000  1.0
  C  C1897  1  0.95837000  0.70726000  0.93594000  1.0
  C  C1898  1  0.00305000  0.71258000  0.90936000  1.0
  C  C1899  1  0.97794000  0.71494000  0.93218000  1.0
  C  C1900  1  0.97390000  0.72322000  0.95145000  1.0
  C  C1901  1  0.01798000  0.61389000  0.91297000  1.0
  C  C1902  1  0.04961000  0.63804000  0.89404000  1.0
  C  C1903  1  0.04240000  0.61360000  0.90870000  1.0
  C  C1904  1  0.01151000  0.59085000  0.92681000  1.0
  C  C1905  1  0.02199000  0.54230000  0.95310000  1.0
  C  C1906  1  0.02927000  0.56672000  0.93675000  1.0
  C  C1907  1  0.06016000  0.58943000  0.91851000  1.0
  C  C1908  1  0.05374000  0.56647000  0.93222000  1.0
  C  C1909  1  0.07264000  0.52212000  0.03425000  1.0
  C  C1910  1  0.06363000  0.51276000  0.02520000  1.0
  C  C1911  1  0.99194000  0.64950000  0.07224000  1.0
  C  C1912  1  0.02304000  0.60700000  0.09166000  1.0
  C  C1913  1  0.99672000  0.62369000  0.08972000  1.0
  C  C1914  1  0.96750000  0.66423000  0.06889000  1.0
  C  C1915  1  0.08258000  0.67138000  0.82796000  1.0
  C  C1916  1  0.94747000  0.65339000  0.08299000  1.0
  C  C1917  1  0.97639000  0.61331000  0.10438000  1.0
  C  C1918  1  0.95214000  0.62794000  0.10111000  1.0
  C  C1919  1  0.17241000  0.29723000  0.21092000  1.0
  C  C1920  1  0.11102000  0.26247000  0.14955000  1.0
  C  C1921  1  0.12603000  0.25403000  0.16455000  1.0
  C  C1922  1  0.06679000  0.17746000  0.15521000  1.0
  C  C1923  1  0.06228000  0.22489000  0.13220000  1.0
  C  C1924  1  0.06088000  0.20167000  0.15641000  1.0
  C  C1925  1  0.05458000  0.20304000  0.18068000  1.0
  C  C1926  1  0.93594000  0.39843000  0.95837000  1.0
  C  C1927  1  0.90936000  0.37501000  0.00305000  1.0
  C  C1928  1  0.93217000  0.37494000  0.97795000  1.0
  C  C1929  1  0.95145000  0.35143000  0.97390000  1.0
  C  C1930  1  0.91296000  0.45516000  0.01799000  1.0
  C  C1931  1  0.89404000  0.41831000  0.04961000  1.0
  C  C1932  1  0.90870000  0.43530000  0.04240000  1.0
  C  C1933  1  0.92680000  0.47083000  0.01152000  1.0
  C  C1934  1  0.95310000  0.48261000  0.02199000  1.0
  C  C1935  1  0.93675000  0.46726000  0.02927000  1.0
  C  C1936  1  0.91851000  0.43190000  0.06016000  1.0
  C  C1937  1  0.93222000  0.44757000  0.05374000  1.0
  C  C1938  1  0.03425000  0.37099000  0.07264000  1.0
  C  C1939  1  0.02520000  0.39841000  0.06363000  1.0
  C  C1940  1  0.07224000  0.28632000  0.99194000  1.0
  C  C1941  1  0.09166000  0.27830000  0.02304000  1.0
  C  C1942  1  0.08972000  0.28987000  0.99672000  1.0
  C  C1943  1  0.06889000  0.29938000  0.96750000  1.0
  C  C1944  1  0.82797000  0.41808000  0.08257000  1.0
  C  C1945  1  0.08299000  0.31615000  0.94747000  1.0
  C  C1946  1  0.10439000  0.30592000  0.97638000  1.0
  C  C1947  1  0.10112000  0.31881000  0.95213000  1.0
  C  C1948  1  0.31945000  0.17240000  0.21092000  1.0
  C  C1949  1  0.47696000  0.11102000  0.14955000  1.0
  C  C1950  1  0.45539000  0.12603000  0.16455000  1.0
  C  C1951  1  0.60054000  0.06679000  0.15521000  1.0
  C  C1952  1  0.58064000  0.06227000  0.13220000  1.0
  C  C1953  1  0.58103000  0.06089000  0.15641000  1.0
  C  C1954  1  0.56170000  0.05458000  0.18068000  1.0
  C  C1955  1  0.70726000  0.93594000  0.95837000  1.0
  C  C1956  1  0.71258000  0.90936000  0.00305000  1.0
  C  C1957  1  0.71493000  0.93218000  0.97795000  1.0
  C  C1958  1  0.72322000  0.95145000  0.97390000  1.0
  C  C1959  1  0.61388000  0.91297000  0.01799000  1.0
  C  C1960  1  0.63804000  0.89404000  0.04961000  1.0
  C  C1961  1  0.61360000  0.90870000  0.04240000  1.0
  C  C1962  1  0.59084000  0.92681000  0.01152000  1.0
  C  C1963  1  0.54230000  0.95310000  0.02199000  1.0
  C  C1964  1  0.56672000  0.93675000  0.02927000  1.0
  C  C1965  1  0.58943000  0.91851000  0.06016000  1.0
  C  C1966  1  0.56647000  0.93222000  0.05374000  1.0
  C  C1967  1  0.52212000  0.03425000  0.07264000  1.0
  C  C1968  1  0.51276000  0.02520000  0.06363000  1.0
  C  C1969  1  0.64950000  0.07224000  0.99194000  1.0
  C  C1970  1  0.60700000  0.09166000  0.02304000  1.0
  C  C1971  1  0.62369000  0.08972000  0.99672000  1.0
  C  C1972  1  0.66423000  0.06889000  0.96750000  1.0
  C  C1973  1  0.67139000  0.82796000  0.08257000  1.0
  C  C1974  1  0.65339000  0.08299000  0.94747000  1.0
  C  C1975  1  0.61332000  0.10438000  0.97638000  1.0
  C  C1976  1  0.62795000  0.10111000  0.95213000  1.0
  C  C1977  1  0.29724000  0.21092000  0.17240000  1.0
  C  C1978  1  0.26247000  0.14955000  0.11102000  1.0
  C  C1979  1  0.25403000  0.16455000  0.12603000  1.0
  C  C1980  1  0.17746000  0.15521000  0.06679000  1.0
  C  C1981  1  0.22490000  0.13220000  0.06227000  1.0
  C  C1982  1  0.20166000  0.15641000  0.06089000  1.0
  C  C1983  1  0.20304000  0.18068000  0.05458000  1.0
  C  C1984  1  0.39843000  0.95837000  0.93594000  1.0
  C  C1985  1  0.37501000  0.00305000  0.90936000  1.0
  C  C1986  1  0.37493000  0.97795000  0.93218000  1.0
  C  C1987  1  0.35143000  0.97390000  0.95145000  1.0
  C  C1988  1  0.45515000  0.01799000  0.91297000  1.0
  C  C1989  1  0.41831000  0.04961000  0.89404000  1.0
  C  C1990  1  0.43530000  0.04240000  0.90870000  1.0
  C  C1991  1  0.47082000  0.01152000  0.92681000  1.0
  C  C1992  1  0.48261000  0.02199000  0.95310000  1.0
  C  C1993  1  0.46726000  0.02927000  0.93675000  1.0
  C  C1994  1  0.43190000  0.06016000  0.91851000  1.0
  C  C1995  1  0.44757000  0.05374000  0.93222000  1.0
  C  C1996  1  0.37099000  0.07264000  0.03425000  1.0
  C  C1997  1  0.39841000  0.06363000  0.02520000  1.0
  C  C1998  1  0.28632000  0.99194000  0.07224000  1.0
  C  C1999  1  0.27830000  0.02304000  0.09166000  1.0
  C  C2000  1  0.28987000  0.99672000  0.08972000  1.0
  C  C2001  1  0.29938000  0.96750000  0.06889000  1.0
  C  C2002  1  0.41809000  0.08257000  0.82796000  1.0
  C  C2003  1  0.31615000  0.94747000  0.08299000  1.0
  C  C2004  1  0.30593000  0.97638000  0.10438000  1.0
  C  C2005  1  0.31882000  0.95213000  0.10111000  1.0
  C  C2006  1  0.21093000  0.29723000  0.31944000  1.0
  C  C2007  1  0.14955000  0.26247000  0.47696000  1.0
  C  C2008  1  0.16455000  0.25403000  0.45539000  1.0
  C  C2009  1  0.15521000  0.17746000  0.60054000  1.0
  C  C2010  1  0.13221000  0.22489000  0.58063000  1.0
  C  C2011  1  0.15640000  0.20167000  0.58104000  1.0
  C  C2012  1  0.18068000  0.20304000  0.56170000  1.0
  C  C2013  1  0.95837000  0.39843000  0.70726000  1.0
  C  C2014  1  0.00305000  0.37501000  0.71258000  1.0
  C  C2015  1  0.97794000  0.37494000  0.71494000  1.0
  C  C2016  1  0.97390000  0.35143000  0.72322000  1.0
  C  C2017  1  0.01798000  0.45516000  0.61389000  1.0
  C  C2018  1  0.04961000  0.41831000  0.63804000  1.0
  C  C2019  1  0.04240000  0.43530000  0.61360000  1.0
  C  C2020  1  0.01151000  0.47083000  0.59085000  1.0
  C  C2021  1  0.02199000  0.48261000  0.54230000  1.0
  C  C2022  1  0.02927000  0.46726000  0.56672000  1.0
  C  C2023  1  0.06016000  0.43190000  0.58943000  1.0
  C  C2024  1  0.05374000  0.44757000  0.56647000  1.0
  C  C2025  1  0.07264000  0.37099000  0.52212000  1.0
  C  C2026  1  0.06363000  0.39841000  0.51276000  1.0
  C  C2027  1  0.99194000  0.28632000  0.64950000  1.0
  C  C2028  1  0.02304000  0.27830000  0.60700000  1.0
  C  C2029  1  0.99672000  0.28987000  0.62369000  1.0
  C  C2030  1  0.96750000  0.29938000  0.66423000  1.0
  C  C2031  1  0.08258000  0.41808000  0.67138000  1.0
  C  C2032  1  0.94747000  0.31615000  0.65339000  1.0
  C  C2033  1  0.97639000  0.30592000  0.61331000  1.0
  C  C2034  1  0.95214000  0.31881000  0.62794000  1.0
  C  C2035  1  0.17241000  0.31944000  0.29723000  1.0
  C  C2036  1  0.11102000  0.47696000  0.26247000  1.0
  C  C2037  1  0.12603000  0.45539000  0.25403000  1.0
  C  C2038  1  0.06679000  0.60054000  0.17746000  1.0
  C  C2039  1  0.06228000  0.58063000  0.22489000  1.0
  C  C2040  1  0.06088000  0.58104000  0.20167000  1.0
  C  C2041  1  0.05458000  0.56170000  0.20304000  1.0
  C  C2042  1  0.93594000  0.70726000  0.39843000  1.0
  C  C2043  1  0.90936000  0.71258000  0.37501000  1.0
  C  C2044  1  0.93217000  0.71494000  0.37494000  1.0
  C  C2045  1  0.95145000  0.72322000  0.35143000  1.0
  C  C2046  1  0.91296000  0.61389000  0.45516000  1.0
  C  C2047  1  0.89404000  0.63804000  0.41831000  1.0
  C  C2048  1  0.90870000  0.61360000  0.43530000  1.0
  C  C2049  1  0.92680000  0.59085000  0.47083000  1.0
  C  C2050  1  0.95310000  0.54230000  0.48261000  1.0
  C  C2051  1  0.93675000  0.56672000  0.46726000  1.0
  C  C2052  1  0.91851000  0.58943000  0.43190000  1.0
  C  C2053  1  0.93222000  0.56647000  0.44757000  1.0
  C  C2054  1  0.03425000  0.52212000  0.37099000  1.0
  C  C2055  1  0.02520000  0.51276000  0.39841000  1.0
  C  C2056  1  0.07224000  0.64950000  0.28632000  1.0
  C  C2057  1  0.09166000  0.60700000  0.27830000  1.0
  C  C2058  1  0.08972000  0.62369000  0.28987000  1.0
  C  C2059  1  0.06889000  0.66423000  0.29938000  1.0
  C  C2060  1  0.82797000  0.67138000  0.41808000  1.0
  C  C2061  1  0.08299000  0.65339000  0.31615000  1.0
  C  C2062  1  0.10439000  0.61331000  0.30592000  1.0
  C  C2063  1  0.10112000  0.62794000  0.31881000  1.0
  C  C2064  1  0.45276000  0.43056000  0.57760000  1.0
  C  C2065  1  0.48753000  0.27304000  0.63898000  1.0
  C  C2066  1  0.49597000  0.29461000  0.62397000  1.0
  C  C2067  1  0.57254000  0.14946000  0.68321000  1.0
  C  C2068  1  0.52510000  0.16937000  0.68773000  1.0
  C  C2069  1  0.54834000  0.16896000  0.68911000  1.0
  C  C2070  1  0.54696000  0.18830000  0.69542000  1.0
  C  C2071  1  0.35157000  0.04274000  0.81406000  1.0
  C  C2072  1  0.37499000  0.03742000  0.84064000  1.0
  C  C2073  1  0.37507000  0.03506000  0.81782000  1.0
  C  C2074  1  0.39857000  0.02678000  0.79855000  1.0
  C  C2075  1  0.29485000  0.13611000  0.83703000  1.0
  C  C2076  1  0.33169000  0.11196000  0.85596000  1.0
  C  C2077  1  0.31470000  0.13640000  0.84130000  1.0
  C  C2078  1  0.27918000  0.15915000  0.82319000  1.0
  C  C2079  1  0.26739000  0.20770000  0.79690000  1.0
  C  C2080  1  0.28274000  0.18328000  0.81325000  1.0
  C  C2081  1  0.31810000  0.16057000  0.83149000  1.0
  C  C2082  1  0.30243000  0.18353000  0.81778000  1.0
  C  C2083  1  0.37901000  0.22788000  0.71575000  1.0
  C  C2084  1  0.35159000  0.23724000  0.72480000  1.0
  C  C2085  1  0.46368000  0.10050000  0.67776000  1.0
  C  C2086  1  0.47170000  0.14300000  0.65834000  1.0
  C  C2087  1  0.46013000  0.12631000  0.66028000  1.0
  C  C2088  1  0.45062000  0.08577000  0.68111000  1.0
  C  C2089  1  0.33191000  0.07862000  0.92204000  1.0
  C  C2090  1  0.43385000  0.09661000  0.66701000  1.0
  C  C2091  1  0.44407000  0.13669000  0.64562000  1.0
  C  C2092  1  0.43118000  0.12206000  0.64889000  1.0
  C  C2093  1  0.43055000  0.45277000  0.53908000  1.0
  C  C2094  1  0.27304000  0.48753000  0.60045000  1.0
  C  C2095  1  0.29461000  0.49597000  0.58545000  1.0
  C  C2096  1  0.14946000  0.57254000  0.59479000  1.0
  C  C2097  1  0.16936000  0.52511000  0.61780000  1.0
  C  C2098  1  0.16897000  0.54833000  0.59359000  1.0
  C  C2099  1  0.18830000  0.54696000  0.56932000  1.0
  C  C2100  1  0.04274000  0.35157000  0.79163000  1.0
  C  C2101  1  0.03742000  0.37499000  0.74695000  1.0
  C  C2102  1  0.03507000  0.37506000  0.77205000  1.0
  C  C2103  1  0.02678000  0.39857000  0.77610000  1.0
  C  C2104  1  0.13612000  0.29484000  0.73201000  1.0
  C  C2105  1  0.11196000  0.33169000  0.70039000  1.0
  C  C2106  1  0.13640000  0.31470000  0.70760000  1.0
  C  C2107  1  0.15916000  0.27917000  0.73848000  1.0
  C  C2108  1  0.20770000  0.26739000  0.72801000  1.0
  C  C2109  1  0.18328000  0.28274000  0.72073000  1.0
  C  C2110  1  0.16057000  0.31810000  0.68984000  1.0
  C  C2111  1  0.18353000  0.30243000  0.69626000  1.0
  C  C2112  1  0.22788000  0.37901000  0.67736000  1.0
  C  C2113  1  0.23724000  0.35159000  0.68637000  1.0
  C  C2114  1  0.10050000  0.46368000  0.75806000  1.0
  C  C2115  1  0.14300000  0.47170000  0.72696000  1.0
  C  C2116  1  0.12631000  0.46013000  0.75328000  1.0
  C  C2117  1  0.08577000  0.45062000  0.78250000  1.0
  C  C2118  1  0.07861000  0.33192000  0.66743000  1.0
  C  C2119  1  0.09661000  0.43385000  0.80253000  1.0
  C  C2120  1  0.13668000  0.44408000  0.77362000  1.0
  C  C2121  1  0.12205000  0.43119000  0.79787000  1.0
  C  C2122  1  0.57759000  0.53908000  0.45277000  1.0
  C  C2123  1  0.63898000  0.60045000  0.48753000  1.0
  C  C2124  1  0.62397000  0.58545000  0.49597000  1.0
  C  C2125  1  0.68321000  0.59479000  0.57254000  1.0
  C  C2126  1  0.68772000  0.61780000  0.52511000  1.0
  C  C2127  1  0.68912000  0.59359000  0.54833000  1.0
  C  C2128  1  0.69542000  0.56932000  0.54696000  1.0
  C  C2129  1  0.81406000  0.79163000  0.35157000  1.0
  C  C2130  1  0.84064000  0.74695000  0.37499000  1.0
  C  C2131  1  0.81783000  0.77205000  0.37506000  1.0
  C  C2132  1  0.79855000  0.77610000  0.39857000  1.0
  C  C2133  1  0.83704000  0.73201000  0.29484000  1.0
  C  C2134  1  0.85596000  0.70039000  0.33169000  1.0
  C  C2135  1  0.84130000  0.70760000  0.31470000  1.0
  C  C2136  1  0.82320000  0.73848000  0.27917000  1.0
  C  C2137  1  0.79690000  0.72801000  0.26739000  1.0
  C  C2138  1  0.81325000  0.72073000  0.28274000  1.0
  C  C2139  1  0.83149000  0.68984000  0.31810000  1.0
  C  C2140  1  0.81778000  0.69626000  0.30243000  1.0
  C  C2141  1  0.71575000  0.67736000  0.37901000  1.0
  C  C2142  1  0.72480000  0.68637000  0.35159000  1.0
  C  C2143  1  0.67776000  0.75806000  0.46368000  1.0
  C  C2144  1  0.65834000  0.72696000  0.47170000  1.0
  C  C2145  1  0.66028000  0.75328000  0.46013000  1.0
  C  C2146  1  0.68111000  0.78250000  0.45062000  1.0
  C  C2147  1  0.92203000  0.66743000  0.33192000  1.0
  C  C2148  1  0.66701000  0.80253000  0.43385000  1.0
  C  C2149  1  0.64561000  0.77362000  0.44408000  1.0
  C  C2150  1  0.64888000  0.79787000  0.43119000  1.0
  C  C2151  1  0.53907000  0.57760000  0.43056000  1.0
  C  C2152  1  0.60045000  0.63898000  0.27304000  1.0
  C  C2153  1  0.58545000  0.62397000  0.29461000  1.0
  C  C2154  1  0.59479000  0.68321000  0.14946000  1.0
  C  C2155  1  0.61779000  0.68773000  0.16937000  1.0
  C  C2156  1  0.59360000  0.68911000  0.16896000  1.0
  C  C2157  1  0.56932000  0.69542000  0.18830000  1.0
  C  C2158  1  0.79163000  0.81406000  0.04274000  1.0
  C  C2159  1  0.74695000  0.84064000  0.03742000  1.0
  C  C2160  1  0.77206000  0.81782000  0.03506000  1.0
  C  C2161  1  0.77610000  0.79855000  0.02678000  1.0
  C  C2162  1  0.73202000  0.83703000  0.13611000  1.0
  C  C2163  1  0.70039000  0.85596000  0.11196000  1.0
  C  C2164  1  0.70760000  0.84130000  0.13640000  1.0
  C  C2165  1  0.73849000  0.82319000  0.15915000  1.0
  C  C2166  1  0.72801000  0.79690000  0.20770000  1.0
  C  C2167  1  0.72073000  0.81325000  0.18328000  1.0
  C  C2168  1  0.68984000  0.83149000  0.16057000  1.0
  C  C2169  1  0.69626000  0.81778000  0.18353000  1.0
  C  C2170  1  0.67736000  0.71575000  0.22788000  1.0
  C  C2171  1  0.68637000  0.72480000  0.23724000  1.0
  C  C2172  1  0.75806000  0.67776000  0.10050000  1.0
  C  C2173  1  0.72696000  0.65834000  0.14300000  1.0
  C  C2174  1  0.75328000  0.66028000  0.12631000  1.0
  C  C2175  1  0.78250000  0.68111000  0.08577000  1.0
  C  C2176  1  0.66742000  0.92204000  0.07862000  1.0
  C  C2177  1  0.80253000  0.66701000  0.09661000  1.0
  C  C2178  1  0.77361000  0.64562000  0.13669000  1.0
  C  C2179  1  0.79786000  0.64889000  0.12206000  1.0
  C  C2180  1  0.53907000  0.43056000  0.45277000  1.0
  C  C2181  1  0.60045000  0.27304000  0.48753000  1.0
  C  C2182  1  0.58545000  0.29461000  0.49597000  1.0
  C  C2183  1  0.59479000  0.14946000  0.57254000  1.0
  C  C2184  1  0.61779000  0.16937000  0.52511000  1.0
  C  C2185  1  0.59360000  0.16896000  0.54833000  1.0
  C  C2186  1  0.56932000  0.18830000  0.54696000  1.0
  C  C2187  1  0.79163000  0.04274000  0.35157000  1.0
  C  C2188  1  0.74695000  0.03742000  0.37499000  1.0
  C  C2189  1  0.77206000  0.03506000  0.37506000  1.0
  C  C2190  1  0.77610000  0.02678000  0.39857000  1.0
  C  C2191  1  0.73202000  0.13611000  0.29484000  1.0
  C  C2192  1  0.70039000  0.11196000  0.33169000  1.0
  C  C2193  1  0.70760000  0.13640000  0.31470000  1.0
  C  C2194  1  0.73849000  0.15915000  0.27917000  1.0
  C  C2195  1  0.72801000  0.20770000  0.26739000  1.0
  C  C2196  1  0.72073000  0.18328000  0.28274000  1.0
  C  C2197  1  0.68984000  0.16057000  0.31810000  1.0
  C  C2198  1  0.69626000  0.18353000  0.30243000  1.0
  C  C2199  1  0.67736000  0.22788000  0.37901000  1.0
  C  C2200  1  0.68637000  0.23724000  0.35159000  1.0
  C  C2201  1  0.75806000  0.10050000  0.46368000  1.0
  C  C2202  1  0.72696000  0.14300000  0.47170000  1.0
  C  C2203  1  0.75328000  0.12631000  0.46013000  1.0
  C  C2204  1  0.78250000  0.08577000  0.45062000  1.0
  C  C2205  1  0.66742000  0.07862000  0.33192000  1.0
  C  C2206  1  0.80253000  0.09661000  0.43385000  1.0
  C  C2207  1  0.77361000  0.13669000  0.44408000  1.0
  C  C2208  1  0.79786000  0.12206000  0.43119000  1.0
  C  C2209  1  0.57759000  0.45277000  0.43056000  1.0
  C  C2210  1  0.63898000  0.48753000  0.27304000  1.0
  C  C2211  1  0.62397000  0.49597000  0.29461000  1.0
  C  C2212  1  0.68321000  0.57254000  0.14946000  1.0
  C  C2213  1  0.68772000  0.52511000  0.16937000  1.0
  C  C2214  1  0.68912000  0.54833000  0.16896000  1.0
  C  C2215  1  0.69542000  0.54696000  0.18830000  1.0
  C  C2216  1  0.81406000  0.35157000  0.04274000  1.0
  C  C2217  1  0.84064000  0.37499000  0.03742000  1.0
  C  C2218  1  0.81783000  0.37506000  0.03506000  1.0
  C  C2219  1  0.79855000  0.39857000  0.02678000  1.0
  C  C2220  1  0.83704000  0.29484000  0.13611000  1.0
  C  C2221  1  0.85596000  0.33169000  0.11196000  1.0
  C  C2222  1  0.84130000  0.31470000  0.13640000  1.0
  C  C2223  1  0.82320000  0.27917000  0.15915000  1.0
  C  C2224  1  0.79690000  0.26739000  0.20770000  1.0
  C  C2225  1  0.81325000  0.28274000  0.18328000  1.0
  C  C2226  1  0.83149000  0.31810000  0.16057000  1.0
  C  C2227  1  0.81778000  0.30243000  0.18353000  1.0
  C  C2228  1  0.71575000  0.37901000  0.22788000  1.0
  C  C2229  1  0.72480000  0.35159000  0.23724000  1.0
  C  C2230  1  0.67776000  0.46368000  0.10050000  1.0
  C  C2231  1  0.65834000  0.47170000  0.14300000  1.0
  C  C2232  1  0.66028000  0.46013000  0.12631000  1.0
  C  C2233  1  0.68111000  0.45062000  0.08577000  1.0
  C  C2234  1  0.92203000  0.33192000  0.07862000  1.0
  C  C2235  1  0.66701000  0.43385000  0.09661000  1.0
  C  C2236  1  0.64561000  0.44408000  0.13669000  1.0
  C  C2237  1  0.64888000  0.43119000  0.12206000  1.0
  C  C2238  1  0.43055000  0.53908000  0.57760000  1.0
  C  C2239  1  0.27304000  0.60045000  0.63898000  1.0
  C  C2240  1  0.29461000  0.58545000  0.62397000  1.0
  C  C2241  1  0.14946000  0.59479000  0.68321000  1.0
  C  C2242  1  0.16936000  0.61780000  0.68773000  1.0
  C  C2243  1  0.16897000  0.59359000  0.68911000  1.0
  C  C2244  1  0.18830000  0.56932000  0.69542000  1.0
  C  C2245  1  0.04274000  0.79163000  0.81406000  1.0
  C  C2246  1  0.03742000  0.74695000  0.84064000  1.0
  C  C2247  1  0.03507000  0.77205000  0.81782000  1.0
  C  C2248  1  0.02678000  0.77610000  0.79855000  1.0
  C  C2249  1  0.13612000  0.73201000  0.83703000  1.0
  C  C2250  1  0.11196000  0.70039000  0.85596000  1.0
  C  C2251  1  0.13640000  0.70760000  0.84130000  1.0
  C  C2252  1  0.15916000  0.73848000  0.82319000  1.0
  C  C2253  1  0.20770000  0.72801000  0.79690000  1.0
  C  C2254  1  0.18328000  0.72073000  0.81325000  1.0
  C  C2255  1  0.16057000  0.68984000  0.83149000  1.0
  C  C2256  1  0.18353000  0.69626000  0.81778000  1.0
  C  C2257  1  0.22788000  0.67736000  0.71575000  1.0
  C  C2258  1  0.23724000  0.68637000  0.72480000  1.0
  C  C2259  1  0.10050000  0.75806000  0.67776000  1.0
  C  C2260  1  0.14300000  0.72696000  0.65834000  1.0
  C  C2261  1  0.12631000  0.75328000  0.66028000  1.0
  C  C2262  1  0.08577000  0.78250000  0.68111000  1.0
  C  C2263  1  0.07861000  0.66743000  0.92204000  1.0
  C  C2264  1  0.09661000  0.80253000  0.66701000  1.0
  C  C2265  1  0.13668000  0.77362000  0.64562000  1.0
  C  C2266  1  0.12205000  0.79787000  0.64889000  1.0
  C  C2267  1  0.45276000  0.57760000  0.53908000  1.0
  C  C2268  1  0.48753000  0.63898000  0.60045000  1.0
  C  C2269  1  0.49597000  0.62397000  0.58545000  1.0
  C  C2270  1  0.57254000  0.68321000  0.59479000  1.0
  C  C2271  1  0.52510000  0.68773000  0.61780000  1.0
  C  C2272  1  0.54834000  0.68911000  0.59359000  1.0
  C  C2273  1  0.54696000  0.69542000  0.56932000  1.0
  C  C2274  1  0.35157000  0.81406000  0.79163000  1.0
  C  C2275  1  0.37499000  0.84064000  0.74695000  1.0
  C  C2276  1  0.37507000  0.81782000  0.77205000  1.0
  C  C2277  1  0.39857000  0.79855000  0.77610000  1.0
  C  C2278  1  0.29485000  0.83703000  0.73201000  1.0
  C  C2279  1  0.33169000  0.85596000  0.70039000  1.0
  C  C2280  1  0.31470000  0.84130000  0.70760000  1.0
  C  C2281  1  0.27918000  0.82319000  0.73848000  1.0
  C  C2282  1  0.26739000  0.79690000  0.72801000  1.0
  C  C2283  1  0.28274000  0.81325000  0.72073000  1.0
  C  C2284  1  0.31810000  0.83149000  0.68984000  1.0
  C  C2285  1  0.30243000  0.81778000  0.69626000  1.0
  C  C2286  1  0.37901000  0.71575000  0.67736000  1.0
  C  C2287  1  0.35159000  0.72480000  0.68637000  1.0
  C  C2288  1  0.46368000  0.67776000  0.75806000  1.0
  C  C2289  1  0.47170000  0.65834000  0.72696000  1.0
  C  C2290  1  0.46013000  0.66028000  0.75328000  1.0
  C  C2291  1  0.45062000  0.68111000  0.78250000  1.0
  C  C2292  1  0.33191000  0.92204000  0.66743000  1.0
  C  C2293  1  0.43385000  0.66701000  0.80253000  1.0
  C  C2294  1  0.44407000  0.64562000  0.77362000  1.0
  C  C2295  1  0.43118000  0.64889000  0.79787000  1.0
  C  C2296  1  0.57759000  0.43056000  0.53908000  1.0
  C  C2297  1  0.63898000  0.27304000  0.60045000  1.0
  C  C2298  1  0.62397000  0.29461000  0.58545000  1.0
  C  C2299  1  0.68321000  0.14946000  0.59479000  1.0
  C  C2300  1  0.68772000  0.16937000  0.61780000  1.0
  C  C2301  1  0.68912000  0.16896000  0.59359000  1.0
  C  C2302  1  0.69542000  0.18830000  0.56932000  1.0
  C  C2303  1  0.81406000  0.04274000  0.79163000  1.0
  C  C2304  1  0.84064000  0.03742000  0.74695000  1.0
  C  C2305  1  0.81783000  0.03506000  0.77205000  1.0
  C  C2306  1  0.79855000  0.02678000  0.77610000  1.0
  C  C2307  1  0.83704000  0.13611000  0.73201000  1.0
  C  C2308  1  0.85596000  0.11196000  0.70039000  1.0
  C  C2309  1  0.84130000  0.13640000  0.70760000  1.0
  C  C2310  1  0.82320000  0.15915000  0.73848000  1.0
  C  C2311  1  0.79690000  0.20770000  0.72801000  1.0
  C  C2312  1  0.81325000  0.18328000  0.72073000  1.0
  C  C2313  1  0.83149000  0.16057000  0.68984000  1.0
  C  C2314  1  0.81778000  0.18353000  0.69626000  1.0
  C  C2315  1  0.71575000  0.22788000  0.67736000  1.0
  C  C2316  1  0.72480000  0.23724000  0.68637000  1.0
  C  C2317  1  0.67776000  0.10050000  0.75806000  1.0
  C  C2318  1  0.65834000  0.14300000  0.72696000  1.0
  C  C2319  1  0.66028000  0.12631000  0.75328000  1.0
  C  C2320  1  0.68111000  0.08577000  0.78250000  1.0
  C  C2321  1  0.92203000  0.07862000  0.66743000  1.0
  C  C2322  1  0.66701000  0.09661000  0.80253000  1.0
  C  C2323  1  0.64561000  0.13669000  0.77362000  1.0
  C  C2324  1  0.64888000  0.12206000  0.79787000  1.0
  C  C2325  1  0.53907000  0.45277000  0.57760000  1.0
  C  C2326  1  0.60045000  0.48753000  0.63898000  1.0
  C  C2327  1  0.58545000  0.49597000  0.62397000  1.0
  C  C2328  1  0.59479000  0.57254000  0.68321000  1.0
  C  C2329  1  0.61779000  0.52511000  0.68773000  1.0
  C  C2330  1  0.59360000  0.54833000  0.68911000  1.0
  C  C2331  1  0.56932000  0.54696000  0.69542000  1.0
  C  C2332  1  0.79163000  0.35157000  0.81406000  1.0
  C  C2333  1  0.74695000  0.37499000  0.84064000  1.0
  C  C2334  1  0.77206000  0.37506000  0.81782000  1.0
  C  C2335  1  0.77610000  0.39857000  0.79855000  1.0
  C  C2336  1  0.73202000  0.29484000  0.83703000  1.0
  C  C2337  1  0.70039000  0.33169000  0.85596000  1.0
  C  C2338  1  0.70760000  0.31470000  0.84130000  1.0
  C  C2339  1  0.73849000  0.27917000  0.82319000  1.0
  C  C2340  1  0.72801000  0.26739000  0.79690000  1.0
  C  C2341  1  0.72073000  0.28274000  0.81325000  1.0
  C  C2342  1  0.68984000  0.31810000  0.83149000  1.0
  C  C2343  1  0.69626000  0.30243000  0.81778000  1.0
  C  C2344  1  0.67736000  0.37901000  0.71575000  1.0
  C  C2345  1  0.68637000  0.35159000  0.72480000  1.0
  C  C2346  1  0.75806000  0.46368000  0.67776000  1.0
  C  C2347  1  0.72696000  0.47170000  0.65834000  1.0
  C  C2348  1  0.75328000  0.46013000  0.66028000  1.0
  C  C2349  1  0.78250000  0.45062000  0.68111000  1.0
  C  C2350  1  0.66742000  0.33192000  0.92204000  1.0
  C  C2351  1  0.80253000  0.43385000  0.66701000  1.0
  C  C2352  1  0.77361000  0.44408000  0.64562000  1.0
  C  C2353  1  0.79786000  0.43119000  0.64889000  1.0
  C  C2354  1  0.45276000  0.53908000  0.43056000  1.0
  C  C2355  1  0.48753000  0.60045000  0.27304000  1.0
  C  C2356  1  0.49597000  0.58545000  0.29461000  1.0
  C  C2357  1  0.57254000  0.59479000  0.14946000  1.0
  C  C2358  1  0.52510000  0.61780000  0.16937000  1.0
  C  C2359  1  0.54834000  0.59359000  0.16896000  1.0
  C  C2360  1  0.54696000  0.56932000  0.18830000  1.0
  C  C2361  1  0.35157000  0.79163000  0.04274000  1.0
  C  C2362  1  0.37499000  0.74695000  0.03742000  1.0
  C  C2363  1  0.37507000  0.77205000  0.03506000  1.0
  C  C2364  1  0.39857000  0.77610000  0.02678000  1.0
  C  C2365  1  0.29485000  0.73201000  0.13611000  1.0
  C  C2366  1  0.33169000  0.70039000  0.11196000  1.0
  C  C2367  1  0.31470000  0.70760000  0.13640000  1.0
  C  C2368  1  0.27918000  0.73848000  0.15915000  1.0
  C  C2369  1  0.26739000  0.72801000  0.20770000  1.0
  C  C2370  1  0.28274000  0.72073000  0.18328000  1.0
  C  C2371  1  0.31810000  0.68984000  0.16057000  1.0
  C  C2372  1  0.30243000  0.69626000  0.18353000  1.0
  C  C2373  1  0.37901000  0.67736000  0.22788000  1.0
  C  C2374  1  0.35159000  0.68637000  0.23724000  1.0
  C  C2375  1  0.46368000  0.75806000  0.10050000  1.0
  C  C2376  1  0.47170000  0.72696000  0.14300000  1.0
  C  C2377  1  0.46013000  0.75328000  0.12631000  1.0
  C  C2378  1  0.45062000  0.78250000  0.08577000  1.0
  C  C2379  1  0.33191000  0.66743000  0.07862000  1.0
  C  C2380  1  0.43385000  0.80253000  0.09661000  1.0
  C  C2381  1  0.44407000  0.77362000  0.13669000  1.0
  C  C2382  1  0.43118000  0.79787000  0.12206000  1.0
  C  C2383  1  0.43055000  0.57760000  0.45277000  1.0
  C  C2384  1  0.27304000  0.63898000  0.48753000  1.0
  C  C2385  1  0.29461000  0.62397000  0.49597000  1.0
  C  C2386  1  0.14946000  0.68321000  0.57254000  1.0
  C  C2387  1  0.16936000  0.68773000  0.52511000  1.0
  C  C2388  1  0.16897000  0.68911000  0.54833000  1.0
  C  C2389  1  0.18830000  0.69542000  0.54696000  1.0
  C  C2390  1  0.04274000  0.81406000  0.35157000  1.0
  C  C2391  1  0.03742000  0.84064000  0.37499000  1.0
  C  C2392  1  0.03507000  0.81782000  0.37506000  1.0
  C  C2393  1  0.02678000  0.79855000  0.39857000  1.0
  C  C2394  1  0.13612000  0.83703000  0.29484000  1.0
  C  C2395  1  0.11196000  0.85596000  0.33169000  1.0
  C  C2396  1  0.13640000  0.84130000  0.31470000  1.0
  C  C2397  1  0.15916000  0.82319000  0.27917000  1.0
  C  C2398  1  0.20770000  0.79690000  0.26739000  1.0
  C  C2399  1  0.18328000  0.81325000  0.28274000  1.0
  C  C2400  1  0.16057000  0.83149000  0.31810000  1.0
  C  C2401  1  0.18353000  0.81778000  0.30243000  1.0
  C  C2402  1  0.22788000  0.71575000  0.37901000  1.0
  C  C2403  1  0.23724000  0.72480000  0.35159000  1.0
  C  C2404  1  0.10050000  0.67776000  0.46368000  1.0
  C  C2405  1  0.14300000  0.65834000  0.47170000  1.0
  C  C2406  1  0.12631000  0.66028000  0.46013000  1.0
  C  C2407  1  0.08577000  0.68111000  0.45062000  1.0
  C  C2408  1  0.07861000  0.92204000  0.33192000  1.0
  C  C2409  1  0.09661000  0.66701000  0.43385000  1.0
  C  C2410  1  0.13668000  0.64562000  0.44408000  1.0
  C  C2411  1  0.12205000  0.64889000  0.43119000  1.0
  C  C2412  1  0.23744000  0.47702000  0.64277000  1.0
  C  C2413  1  0.26178000  0.48354000  0.62734000  1.0
  C  C2414  1  0.32744000  0.51092000  0.58082000  1.0
  C  C2415  1  0.30544000  0.50062000  0.59697000  1.0
  C  C2416  1  0.21274000  0.42250000  0.68238000  1.0
  C  C2417  1  0.22294000  0.39320000  0.69193000  1.0
  C  C2418  1  0.25049000  0.30951000  0.72000000  1.0
  C  C2419  1  0.24202000  0.33728000  0.71035000  1.0
  C  C2420  1  0.47702000  0.23744000  0.64277000  1.0
  C  C2421  1  0.48354000  0.26178000  0.62734000  1.0
  C  C2422  1  0.51093000  0.32743000  0.58082000  1.0
  C  C2423  1  0.50061000  0.30545000  0.59697000  1.0
  C  C2424  1  0.42249000  0.21275000  0.68238000  1.0
  C  C2425  1  0.39319000  0.22295000  0.69193000  1.0
  C  C2426  1  0.30951000  0.25049000  0.72000000  1.0
  C  C2427  1  0.33728000  0.24202000  0.71035000  1.0
  C  C2428  1  0.64277000  0.64277000  0.47702000  1.0
  C  C2429  1  0.62734000  0.62734000  0.48354000  1.0
  C  C2430  1  0.58083000  0.58082000  0.51092000  1.0
  C  C2431  1  0.59696000  0.59697000  0.50062000  1.0
  C  C2432  1  0.68237000  0.68238000  0.42250000  1.0
  C  C2433  1  0.69192000  0.69193000  0.39320000  1.0
  C  C2434  1  0.72000000  0.72000000  0.30951000  1.0
  C  C2435  1  0.71035000  0.71035000  0.33728000  1.0
  C  C2436  1  0.64277000  0.64277000  0.23744000  1.0
  C  C2437  1  0.62734000  0.62734000  0.26178000  1.0
  C  C2438  1  0.58083000  0.58082000  0.32743000  1.0
  C  C2439  1  0.59696000  0.59697000  0.30545000  1.0
  C  C2440  1  0.68237000  0.68238000  0.21275000  1.0
  C  C2441  1  0.69192000  0.69193000  0.22295000  1.0
  C  C2442  1  0.72000000  0.72000000  0.25049000  1.0
  C  C2443  1  0.71035000  0.71035000  0.24202000  1.0
  C  C2444  1  0.23744000  0.64277000  0.47702000  1.0
  C  C2445  1  0.26178000  0.62734000  0.48354000  1.0
  C  C2446  1  0.32744000  0.58082000  0.51092000  1.0
  C  C2447  1  0.30544000  0.59697000  0.50062000  1.0
  C  C2448  1  0.21274000  0.68238000  0.42250000  1.0
  C  C2449  1  0.22294000  0.69193000  0.39320000  1.0
  C  C2450  1  0.25049000  0.72000000  0.30951000  1.0
  C  C2451  1  0.24202000  0.71035000  0.33728000  1.0
  C  C2452  1  0.47702000  0.64277000  0.23744000  1.0
  C  C2453  1  0.48354000  0.62734000  0.26178000  1.0
  C  C2454  1  0.51093000  0.58082000  0.32743000  1.0
  C  C2455  1  0.50061000  0.59697000  0.30545000  1.0
  C  C2456  1  0.42249000  0.68238000  0.21275000  1.0
  C  C2457  1  0.39319000  0.69193000  0.22295000  1.0
  C  C2458  1  0.30951000  0.72000000  0.25049000  1.0
  C  C2459  1  0.33728000  0.71035000  0.24202000  1.0
  C  C2460  1  0.64277000  0.23744000  0.64277000  1.0
  C  C2461  1  0.62734000  0.26178000  0.62734000  1.0
  C  C2462  1  0.58083000  0.32743000  0.58082000  1.0
  C  C2463  1  0.59696000  0.30545000  0.59697000  1.0
  C  C2464  1  0.68237000  0.21275000  0.68238000  1.0
  C  C2465  1  0.69192000  0.22295000  0.69193000  1.0
  C  C2466  1  0.72000000  0.25049000  0.72000000  1.0
  C  C2467  1  0.71035000  0.24202000  0.71035000  1.0
  C  C2468  1  0.64277000  0.47702000  0.64277000  1.0
  C  C2469  1  0.62734000  0.48354000  0.62734000  1.0
  C  C2470  1  0.58083000  0.51092000  0.58082000  1.0
  C  C2471  1  0.59696000  0.50062000  0.59697000  1.0
  C  C2472  1  0.68237000  0.42250000  0.68238000  1.0
  C  C2473  1  0.69192000  0.39320000  0.69193000  1.0
  C  C2474  1  0.72000000  0.30951000  0.72000000  1.0
  C  C2475  1  0.71035000  0.33728000  0.71035000  1.0
  C  C2476  1  0.23744000  0.64277000  0.64277000  1.0
  C  C2477  1  0.26178000  0.62734000  0.62734000  1.0
  C  C2478  1  0.32744000  0.58082000  0.58082000  1.0
  C  C2479  1  0.30544000  0.59697000  0.59697000  1.0
  C  C2480  1  0.21274000  0.68238000  0.68238000  1.0
  C  C2481  1  0.22294000  0.69193000  0.69193000  1.0
  C  C2482  1  0.25049000  0.72000000  0.72000000  1.0
  C  C2483  1  0.24202000  0.71035000  0.71035000  1.0
  C  C2484  1  0.47702000  0.64277000  0.64277000  1.0
  C  C2485  1  0.48354000  0.62734000  0.62734000  1.0
  C  C2486  1  0.51093000  0.58082000  0.58082000  1.0
  C  C2487  1  0.50061000  0.59697000  0.59697000  1.0
  C  C2488  1  0.42249000  0.68238000  0.68238000  1.0
  C  C2489  1  0.39319000  0.69193000  0.69193000  1.0
  C  C2490  1  0.30951000  0.72000000  0.72000000  1.0
  C  C2491  1  0.33728000  0.71035000  0.71035000  1.0
  C  C2492  1  0.64277000  0.47702000  0.23744000  1.0
  C  C2493  1  0.62734000  0.48354000  0.26178000  1.0
  C  C2494  1  0.58083000  0.51092000  0.32743000  1.0
  C  C2495  1  0.59696000  0.50062000  0.30545000  1.0
  C  C2496  1  0.68237000  0.42250000  0.21275000  1.0
  C  C2497  1  0.69192000  0.39320000  0.22295000  1.0
  C  C2498  1  0.72000000  0.30951000  0.25049000  1.0
  C  C2499  1  0.71035000  0.33728000  0.24202000  1.0
  C  C2500  1  0.64277000  0.23744000  0.47702000  1.0
  C  C2501  1  0.62734000  0.26178000  0.48354000  1.0
  C  C2502  1  0.58083000  0.32743000  0.51092000  1.0
  C  C2503  1  0.59696000  0.30545000  0.50062000  1.0
  C  C2504  1  0.68237000  0.21275000  0.42250000  1.0
  C  C2505  1  0.69192000  0.22295000  0.39320000  1.0
  C  C2506  1  0.72000000  0.25049000  0.30951000  1.0
  C  C2507  1  0.71035000  0.24202000  0.33728000  1.0
  C  C2508  1  0.27298000  0.51256000  0.10723000  1.0
  C  C2509  1  0.26646000  0.48822000  0.12266000  1.0
  C  C2510  1  0.23907000  0.42257000  0.16918000  1.0
  C  C2511  1  0.24939000  0.44455000  0.15303000  1.0
  C  C2512  1  0.32751000  0.53725000  0.06762000  1.0
  C  C2513  1  0.35681000  0.52705000  0.05807000  1.0
  C  C2514  1  0.44049000  0.49951000  0.03000000  1.0
  C  C2515  1  0.41272000  0.50798000  0.03965000  1.0
  C  C2516  1  0.51256000  0.27298000  0.10723000  1.0
  C  C2517  1  0.48822000  0.26646000  0.12266000  1.0
  C  C2518  1  0.42256000  0.23908000  0.16918000  1.0
  C  C2519  1  0.44456000  0.24938000  0.15303000  1.0
  C  C2520  1  0.53726000  0.32750000  0.06762000  1.0
  C  C2521  1  0.52706000  0.35680000  0.05807000  1.0
  C  C2522  1  0.49951000  0.44049000  0.03000000  1.0
  C  C2523  1  0.50798000  0.41272000  0.03965000  1.0
  C  C2524  1  0.10723000  0.10723000  0.27298000  1.0
  C  C2525  1  0.12266000  0.12266000  0.26646000  1.0
  C  C2526  1  0.16917000  0.16918000  0.23908000  1.0
  C  C2527  1  0.15304000  0.15303000  0.24938000  1.0
  C  C2528  1  0.06763000  0.06762000  0.32750000  1.0
  C  C2529  1  0.05808000  0.05807000  0.35680000  1.0
  C  C2530  1  0.03000000  0.03000000  0.44049000  1.0
  C  C2531  1  0.03965000  0.03965000  0.41272000  1.0
  C  C2532  1  0.10723000  0.10723000  0.51256000  1.0
  C  C2533  1  0.12266000  0.12266000  0.48822000  1.0
  C  C2534  1  0.16917000  0.16918000  0.42257000  1.0
  C  C2535  1  0.15304000  0.15303000  0.44455000  1.0
  C  C2536  1  0.06763000  0.06762000  0.53725000  1.0
  C  C2537  1  0.05808000  0.05807000  0.52705000  1.0
  C  C2538  1  0.03000000  0.03000000  0.49951000  1.0
  C  C2539  1  0.03965000  0.03965000  0.50798000  1.0
  C  C2540  1  0.10723000  0.51256000  0.27298000  1.0
  C  C2541  1  0.12266000  0.48822000  0.26646000  1.0
  C  C2542  1  0.16917000  0.42257000  0.23908000  1.0
  C  C2543  1  0.15304000  0.44455000  0.24938000  1.0
  C  C2544  1  0.06763000  0.53725000  0.32750000  1.0
  C  C2545  1  0.05808000  0.52705000  0.35680000  1.0
  C  C2546  1  0.03000000  0.49951000  0.44049000  1.0
  C  C2547  1  0.03965000  0.50798000  0.41272000  1.0
  C  C2548  1  0.10723000  0.27298000  0.51256000  1.0
  C  C2549  1  0.12266000  0.26646000  0.48822000  1.0
  C  C2550  1  0.16917000  0.23908000  0.42257000  1.0
  C  C2551  1  0.15304000  0.24938000  0.44455000  1.0
  C  C2552  1  0.06763000  0.32750000  0.53725000  1.0
  C  C2553  1  0.05808000  0.35680000  0.52705000  1.0
  C  C2554  1  0.03000000  0.44049000  0.49951000  1.0
  C  C2555  1  0.03965000  0.41272000  0.50798000  1.0
  C  C2556  1  0.51256000  0.10723000  0.10723000  1.0
  C  C2557  1  0.48822000  0.12266000  0.12266000  1.0
  C  C2558  1  0.42256000  0.16918000  0.16918000  1.0
  C  C2559  1  0.44456000  0.15303000  0.15303000  1.0
  C  C2560  1  0.53726000  0.06762000  0.06762000  1.0
  C  C2561  1  0.52706000  0.05807000  0.05807000  1.0
  C  C2562  1  0.49951000  0.03000000  0.03000000  1.0
  C  C2563  1  0.50798000  0.03965000  0.03965000  1.0
  C  C2564  1  0.27298000  0.10723000  0.10723000  1.0
  C  C2565  1  0.26646000  0.12266000  0.12266000  1.0
  C  C2566  1  0.23907000  0.16918000  0.16918000  1.0
  C  C2567  1  0.24939000  0.15303000  0.15303000  1.0
  C  C2568  1  0.32751000  0.06762000  0.06762000  1.0
  C  C2569  1  0.35681000  0.05807000  0.05807000  1.0
  C  C2570  1  0.44049000  0.03000000  0.03000000  1.0
  C  C2571  1  0.41272000  0.03965000  0.03965000  1.0
  C  C2572  1  0.10723000  0.51256000  0.10723000  1.0
  C  C2573  1  0.12266000  0.48822000  0.12266000  1.0
  C  C2574  1  0.16917000  0.42257000  0.16918000  1.0
  C  C2575  1  0.15304000  0.44455000  0.15303000  1.0
  C  C2576  1  0.06763000  0.53725000  0.06762000  1.0
  C  C2577  1  0.05808000  0.52705000  0.05807000  1.0
  C  C2578  1  0.03000000  0.49951000  0.03000000  1.0
  C  C2579  1  0.03965000  0.50798000  0.03965000  1.0
  C  C2580  1  0.10723000  0.27298000  0.10723000  1.0
  C  C2581  1  0.12266000  0.26646000  0.12266000  1.0
  C  C2582  1  0.16917000  0.23908000  0.16918000  1.0
  C  C2583  1  0.15304000  0.24938000  0.15303000  1.0
  C  C2584  1  0.06763000  0.32750000  0.06762000  1.0
  C  C2585  1  0.05808000  0.35680000  0.05807000  1.0
  C  C2586  1  0.03000000  0.44049000  0.03000000  1.0
  C  C2587  1  0.03965000  0.41272000  0.03965000  1.0
  C  C2588  1  0.27298000  0.10723000  0.51256000  1.0
  C  C2589  1  0.26646000  0.12266000  0.48822000  1.0
  C  C2590  1  0.23907000  0.16918000  0.42257000  1.0
  C  C2591  1  0.24939000  0.15303000  0.44455000  1.0
  C  C2592  1  0.32751000  0.06762000  0.53725000  1.0
  C  C2593  1  0.35681000  0.05807000  0.52705000  1.0
  C  C2594  1  0.44049000  0.03000000  0.49951000  1.0
  C  C2595  1  0.41272000  0.03965000  0.50798000  1.0
  C  C2596  1  0.51256000  0.10723000  0.27298000  1.0
  C  C2597  1  0.48822000  0.12266000  0.26646000  1.0
  C  C2598  1  0.42256000  0.16918000  0.23908000  1.0
  C  C2599  1  0.44456000  0.15303000  0.24938000  1.0
  C  C2600  1  0.53726000  0.06762000  0.32750000  1.0
  C  C2601  1  0.52706000  0.05807000  0.35680000  1.0
  C  C2602  1  0.49951000  0.03000000  0.44049000  1.0
  C  C2603  1  0.50798000  0.03965000  0.41272000  1.0
  C  C2604  1  0.39789000  0.48771000  0.55720000  1.0
  C  C2605  1  0.41931000  0.46445000  0.55812000  1.0
  C  C2606  1  0.48771000  0.39789000  0.55720000  1.0
  C  C2607  1  0.46445000  0.41931000  0.55812000  1.0
  C  C2608  1  0.55720000  0.55720000  0.48771000  1.0
  C  C2609  1  0.55812000  0.55812000  0.46445000  1.0
  C  C2610  1  0.55720000  0.55720000  0.39789000  1.0
  C  C2611  1  0.55812000  0.55812000  0.41931000  1.0
  C  C2612  1  0.39789000  0.55720000  0.48771000  1.0
  C  C2613  1  0.41931000  0.55812000  0.46445000  1.0
  C  C2614  1  0.48771000  0.55720000  0.39789000  1.0
  C  C2615  1  0.46445000  0.55812000  0.41931000  1.0
  C  C2616  1  0.55720000  0.39789000  0.55720000  1.0
  C  C2617  1  0.55812000  0.41931000  0.55812000  1.0
  C  C2618  1  0.55720000  0.48771000  0.55720000  1.0
  C  C2619  1  0.55812000  0.46445000  0.55812000  1.0
  C  C2620  1  0.39789000  0.55720000  0.55720000  1.0
  C  C2621  1  0.41931000  0.55812000  0.55812000  1.0
  C  C2622  1  0.48771000  0.55720000  0.55720000  1.0
  C  C2623  1  0.46445000  0.55812000  0.55812000  1.0
  C  C2624  1  0.55720000  0.48771000  0.39789000  1.0
  C  C2625  1  0.55812000  0.46445000  0.41931000  1.0
  C  C2626  1  0.55720000  0.39789000  0.48771000  1.0
  C  C2627  1  0.55812000  0.41931000  0.46445000  1.0
  C  C2628  1  0.26229000  0.35211000  0.19280000  1.0
  C  C2629  1  0.28555000  0.33069000  0.19188000  1.0
  C  C2630  1  0.35211000  0.26229000  0.19280000  1.0
  C  C2631  1  0.33069000  0.28555000  0.19188000  1.0
  C  C2632  1  0.19280000  0.19280000  0.26229000  1.0
  C  C2633  1  0.19188000  0.19188000  0.28555000  1.0
  C  C2634  1  0.19280000  0.19280000  0.35211000  1.0
  C  C2635  1  0.19188000  0.19188000  0.33069000  1.0
  C  C2636  1  0.19280000  0.35211000  0.26229000  1.0
  C  C2637  1  0.19188000  0.33069000  0.28555000  1.0
  C  C2638  1  0.19280000  0.26229000  0.35211000  1.0
  C  C2639  1  0.19188000  0.28555000  0.33069000  1.0
  C  C2640  1  0.35211000  0.19280000  0.19280000  1.0
  C  C2641  1  0.33069000  0.19188000  0.19188000  1.0
  C  C2642  1  0.26229000  0.19280000  0.19280000  1.0
  C  C2643  1  0.28555000  0.19188000  0.19188000  1.0
  C  C2644  1  0.19280000  0.35211000  0.19280000  1.0
  C  C2645  1  0.19188000  0.33069000  0.19188000  1.0
  C  C2646  1  0.19280000  0.26229000  0.19280000  1.0
  C  C2647  1  0.19188000  0.28555000  0.19188000  1.0
  C  C2648  1  0.26229000  0.19280000  0.35211000  1.0
  C  C2649  1  0.28555000  0.19188000  0.33069000  1.0
  C  C2650  1  0.35211000  0.19280000  0.26229000  1.0
  C  C2651  1  0.33069000  0.19188000  0.28555000  1.0
  O  O2652  1  0.38876000  0.49786000  0.57441000  1.0
  O  O2653  1  0.22735000  0.47475000  0.66673000  1.0
  O  O2654  1  0.33630000  0.51523000  0.59199000  1.0
  O  O2655  1  0.18680000  0.50327000  0.69363000  1.0
  O  O2656  1  0.15227000  0.52824000  0.63918000  1.0
  O  O2657  1  0.04648000  0.35319000  0.85659000  1.0
  O  O2658  1  0.02053000  0.35330000  0.90715000  1.0
  O  O2659  1  0.09063000  0.32723000  0.86604000  1.0
  O  O2660  1  0.11354000  0.35000000  0.85795000  1.0
  O  O2661  1  0.20664000  0.25060000  0.79203000  1.0
  O  O2662  1  0.22856000  0.27229000  0.78782000  1.0
  O  O2663  1  0.20861000  0.43444000  0.69621000  1.0
  O  O2664  1  0.25396000  0.29751000  0.74199000  1.0
  O  O2665  1  0.13239000  0.48889000  0.66888000  1.0
  O  O2666  1  0.16735000  0.46343000  0.72254000  1.0
  O  O2667  1  0.06492000  0.32773000  0.91590000  1.0
  O  O2668  1  0.09587000  0.40057000  0.84263000  1.0
  O  O2669  1  0.49786000  0.38876000  0.53897000  1.0
  O  O2670  1  0.47475000  0.22735000  0.63117000  1.0
  O  O2671  1  0.51523000  0.33630000  0.55648000  1.0
  O  O2672  1  0.50327000  0.18680000  0.61630000  1.0
  O  O2673  1  0.52824000  0.15227000  0.68031000  1.0
  O  O2674  1  0.35319000  0.04648000  0.74374000  1.0
  O  O2675  1  0.35329000  0.02054000  0.71902000  1.0
  O  O2676  1  0.32723000  0.09063000  0.71610000  1.0
  O  O2677  1  0.35001000  0.11353000  0.67851000  1.0
  O  O2678  1  0.25060000  0.20664000  0.75073000  1.0
  O  O2679  1  0.27228000  0.22857000  0.71133000  1.0
  O  O2680  1  0.43445000  0.20860000  0.66074000  1.0
  O  O2681  1  0.29751000  0.25396000  0.70654000  1.0
  O  O2682  1  0.48890000  0.13238000  0.70984000  1.0
  O  O2683  1  0.46342000  0.16736000  0.64668000  1.0
  O  O2684  1  0.32773000  0.06492000  0.69145000  1.0
  O  O2685  1  0.40058000  0.09586000  0.66093000  1.0
  O  O2686  1  0.53897000  0.57441000  0.49786000  1.0
  O  O2687  1  0.63117000  0.66673000  0.47475000  1.0
  O  O2688  1  0.55648000  0.59199000  0.51523000  1.0
  O  O2689  1  0.61630000  0.69363000  0.50327000  1.0
  O  O2690  1  0.68031000  0.63918000  0.52824000  1.0
  O  O2691  1  0.74374000  0.85659000  0.35319000  1.0
  O  O2692  1  0.71901000  0.90715000  0.35330000  1.0
  O  O2693  1  0.71610000  0.86604000  0.32723000  1.0
  O  O2694  1  0.67852000  0.85795000  0.35000000  1.0
  O  O2695  1  0.75073000  0.79203000  0.25060000  1.0
  O  O2696  1  0.71132000  0.78782000  0.27229000  1.0
  O  O2697  1  0.66075000  0.69621000  0.43444000  1.0
  O  O2698  1  0.70654000  0.74199000  0.29751000  1.0
  O  O2699  1  0.70985000  0.66888000  0.48889000  1.0
  O  O2700  1  0.64667000  0.72254000  0.46343000  1.0
  O  O2701  1  0.69145000  0.91590000  0.32773000  1.0
  O  O2702  1  0.66094000  0.84263000  0.40057000  1.0
  O  O2703  1  0.57441000  0.53897000  0.38876000  1.0
  O  O2704  1  0.66673000  0.63117000  0.22735000  1.0
  O  O2705  1  0.59199000  0.55648000  0.33630000  1.0
  O  O2706  1  0.69363000  0.61630000  0.18680000  1.0
  O  O2707  1  0.63918000  0.68031000  0.15227000  1.0
  O  O2708  1  0.85659000  0.74374000  0.04648000  1.0
  O  O2709  1  0.90714000  0.71902000  0.02054000  1.0
  O  O2710  1  0.86604000  0.71610000  0.09063000  1.0
  O  O2711  1  0.85796000  0.67851000  0.11353000  1.0
  O  O2712  1  0.79203000  0.75073000  0.20664000  1.0
  O  O2713  1  0.78781000  0.71133000  0.22857000  1.0
  O  O2714  1  0.69622000  0.66074000  0.20860000  1.0
  O  O2715  1  0.74199000  0.70654000  0.25396000  1.0
  O  O2716  1  0.66889000  0.70984000  0.13238000  1.0
  O  O2717  1  0.72253000  0.64668000  0.16736000  1.0
  O  O2718  1  0.91590000  0.69145000  0.06492000  1.0
  O  O2719  1  0.84264000  0.66093000  0.09586000  1.0
  O  O2720  1  0.38876000  0.53897000  0.49786000  1.0
  O  O2721  1  0.22735000  0.63117000  0.47475000  1.0
  O  O2722  1  0.33630000  0.55648000  0.51523000  1.0
  O  O2723  1  0.18680000  0.61630000  0.50327000  1.0
  O  O2724  1  0.15227000  0.68031000  0.52824000  1.0
  O  O2725  1  0.04648000  0.74374000  0.35319000  1.0
  O  O2726  1  0.02053000  0.71902000  0.35330000  1.0
  O  O2727  1  0.09063000  0.71610000  0.32723000  1.0
  O  O2728  1  0.11354000  0.67851000  0.35000000  1.0
  O  O2729  1  0.20664000  0.75073000  0.25060000  1.0
  O  O2730  1  0.22856000  0.71133000  0.27229000  1.0
  O  O2731  1  0.20861000  0.66074000  0.43444000  1.0
  O  O2732  1  0.25396000  0.70654000  0.29751000  1.0
  O  O2733  1  0.13239000  0.70984000  0.48889000  1.0
  O  O2734  1  0.16735000  0.64668000  0.46343000  1.0
  O  O2735  1  0.06492000  0.69145000  0.32773000  1.0
  O  O2736  1  0.09587000  0.66093000  0.40057000  1.0
  O  O2737  1  0.49786000  0.57441000  0.38876000  1.0
  O  O2738  1  0.47475000  0.66673000  0.22735000  1.0
  O  O2739  1  0.51523000  0.59199000  0.33630000  1.0
  O  O2740  1  0.50327000  0.69363000  0.18680000  1.0
  O  O2741  1  0.52824000  0.63918000  0.15227000  1.0
  O  O2742  1  0.35319000  0.85659000  0.04648000  1.0
  O  O2743  1  0.35329000  0.90715000  0.02054000  1.0
  O  O2744  1  0.32723000  0.86604000  0.09063000  1.0
  O  O2745  1  0.35001000  0.85795000  0.11353000  1.0
  O  O2746  1  0.25060000  0.79203000  0.20664000  1.0
  O  O2747  1  0.27228000  0.78782000  0.22857000  1.0
  O  O2748  1  0.43445000  0.69621000  0.20860000  1.0
  O  O2749  1  0.29751000  0.74199000  0.25396000  1.0
  O  O2750  1  0.48890000  0.66888000  0.13238000  1.0
  O  O2751  1  0.46342000  0.72254000  0.16736000  1.0
  O  O2752  1  0.32773000  0.91590000  0.06492000  1.0
  O  O2753  1  0.40058000  0.84263000  0.09586000  1.0
  O  O2754  1  0.53897000  0.38876000  0.57441000  1.0
  O  O2755  1  0.63117000  0.22735000  0.66673000  1.0
  O  O2756  1  0.55648000  0.33630000  0.59199000  1.0
  O  O2757  1  0.61630000  0.18680000  0.69363000  1.0
  O  O2758  1  0.68031000  0.15227000  0.63918000  1.0
  O  O2759  1  0.74374000  0.04648000  0.85659000  1.0
  O  O2760  1  0.71901000  0.02054000  0.90715000  1.0
  O  O2761  1  0.71610000  0.09063000  0.86604000  1.0
  O  O2762  1  0.67852000  0.11353000  0.85795000  1.0
  O  O2763  1  0.75073000  0.20664000  0.79203000  1.0
  O  O2764  1  0.71132000  0.22857000  0.78782000  1.0
  O  O2765  1  0.66075000  0.20860000  0.69621000  1.0
  O  O2766  1  0.70654000  0.25396000  0.74199000  1.0
  O  O2767  1  0.70985000  0.13238000  0.66888000  1.0
  O  O2768  1  0.64667000  0.16736000  0.72254000  1.0
  O  O2769  1  0.69145000  0.06492000  0.91590000  1.0
  O  O2770  1  0.66094000  0.09586000  0.84263000  1.0
  O  O2771  1  0.57441000  0.49786000  0.53897000  1.0
  O  O2772  1  0.66673000  0.47475000  0.63117000  1.0
  O  O2773  1  0.59199000  0.51523000  0.55648000  1.0
  O  O2774  1  0.69363000  0.50327000  0.61630000  1.0
  O  O2775  1  0.63918000  0.52824000  0.68031000  1.0
  O  O2776  1  0.85659000  0.35319000  0.74374000  1.0
  O  O2777  1  0.90714000  0.35330000  0.71902000  1.0
  O  O2778  1  0.86604000  0.32723000  0.71610000  1.0
  O  O2779  1  0.85796000  0.35000000  0.67851000  1.0
  O  O2780  1  0.79203000  0.25060000  0.75073000  1.0
  O  O2781  1  0.78781000  0.27229000  0.71133000  1.0
  O  O2782  1  0.69622000  0.43444000  0.66074000  1.0
  O  O2783  1  0.74199000  0.29751000  0.70654000  1.0
  O  O2784  1  0.66889000  0.48889000  0.70984000  1.0
  O  O2785  1  0.72253000  0.46343000  0.64668000  1.0
  O  O2786  1  0.91590000  0.32773000  0.69145000  1.0
  O  O2787  1  0.84264000  0.40057000  0.66093000  1.0
  O  O2788  1  0.38876000  0.57441000  0.53897000  1.0
  O  O2789  1  0.22735000  0.66673000  0.63117000  1.0
  O  O2790  1  0.33630000  0.59199000  0.55648000  1.0
  O  O2791  1  0.18680000  0.69363000  0.61630000  1.0
  O  O2792  1  0.15227000  0.63918000  0.68031000  1.0
  O  O2793  1  0.04648000  0.85659000  0.74374000  1.0
  O  O2794  1  0.02053000  0.90715000  0.71902000  1.0
  O  O2795  1  0.09063000  0.86604000  0.71610000  1.0
  O  O2796  1  0.11354000  0.85795000  0.67851000  1.0
  O  O2797  1  0.20664000  0.79203000  0.75073000  1.0
  O  O2798  1  0.22856000  0.78782000  0.71133000  1.0
  O  O2799  1  0.20861000  0.69621000  0.66074000  1.0
  O  O2800  1  0.25396000  0.74199000  0.70654000  1.0
  O  O2801  1  0.13239000  0.66888000  0.70984000  1.0
  O  O2802  1  0.16735000  0.72254000  0.64668000  1.0
  O  O2803  1  0.06492000  0.91590000  0.69145000  1.0
  O  O2804  1  0.09587000  0.84263000  0.66093000  1.0
  O  O2805  1  0.49786000  0.53897000  0.57441000  1.0
  O  O2806  1  0.47475000  0.63117000  0.66673000  1.0
  O  O2807  1  0.51523000  0.55648000  0.59199000  1.0
  O  O2808  1  0.50327000  0.61630000  0.69363000  1.0
  O  O2809  1  0.52824000  0.68031000  0.63918000  1.0
  O  O2810  1  0.35319000  0.74374000  0.85659000  1.0
  O  O2811  1  0.35329000  0.71902000  0.90715000  1.0
  O  O2812  1  0.32723000  0.71610000  0.86604000  1.0
  O  O2813  1  0.35001000  0.67851000  0.85795000  1.0
  O  O2814  1  0.25060000  0.75073000  0.79203000  1.0
  O  O2815  1  0.27228000  0.71133000  0.78782000  1.0
  O  O2816  1  0.43445000  0.66074000  0.69621000  1.0
  O  O2817  1  0.29751000  0.70654000  0.74199000  1.0
  O  O2818  1  0.48890000  0.70984000  0.66888000  1.0
  O  O2819  1  0.46342000  0.64668000  0.72254000  1.0
  O  O2820  1  0.32773000  0.69145000  0.91590000  1.0
  O  O2821  1  0.40058000  0.66093000  0.84263000  1.0
  O  O2822  1  0.53897000  0.49786000  0.38876000  1.0
  O  O2823  1  0.63117000  0.47475000  0.22735000  1.0
  O  O2824  1  0.55648000  0.51523000  0.33630000  1.0
  O  O2825  1  0.61630000  0.50327000  0.18680000  1.0
  O  O2826  1  0.68031000  0.52824000  0.15227000  1.0
  O  O2827  1  0.74374000  0.35319000  0.04648000  1.0
  O  O2828  1  0.71901000  0.35330000  0.02054000  1.0
  O  O2829  1  0.71610000  0.32723000  0.09063000  1.0
  O  O2830  1  0.67852000  0.35000000  0.11353000  1.0
  O  O2831  1  0.75073000  0.25060000  0.20664000  1.0
  O  O2832  1  0.71132000  0.27229000  0.22857000  1.0
  O  O2833  1  0.66075000  0.43444000  0.20860000  1.0
  O  O2834  1  0.70654000  0.29751000  0.25396000  1.0
  O  O2835  1  0.70985000  0.48889000  0.13238000  1.0
  O  O2836  1  0.64667000  0.46343000  0.16736000  1.0
  O  O2837  1  0.69145000  0.32773000  0.06492000  1.0
  O  O2838  1  0.66094000  0.40057000  0.09586000  1.0
  O  O2839  1  0.57441000  0.38876000  0.49786000  1.0
  O  O2840  1  0.66673000  0.22735000  0.47475000  1.0
  O  O2841  1  0.59199000  0.33630000  0.51523000  1.0
  O  O2842  1  0.69363000  0.18680000  0.50327000  1.0
  O  O2843  1  0.63918000  0.15227000  0.52824000  1.0
  O  O2844  1  0.85659000  0.04648000  0.35319000  1.0
  O  O2845  1  0.90714000  0.02054000  0.35330000  1.0
  O  O2846  1  0.86604000  0.09063000  0.32723000  1.0
  O  O2847  1  0.85796000  0.11353000  0.35000000  1.0
  O  O2848  1  0.79203000  0.20664000  0.25060000  1.0
  O  O2849  1  0.78781000  0.22857000  0.27229000  1.0
  O  O2850  1  0.69622000  0.20860000  0.43444000  1.0
  O  O2851  1  0.74199000  0.25396000  0.29751000  1.0
  O  O2852  1  0.66889000  0.13238000  0.48889000  1.0
  O  O2853  1  0.72253000  0.16736000  0.46343000  1.0
  O  O2854  1  0.91590000  0.06492000  0.32773000  1.0
  O  O2855  1  0.84264000  0.09586000  0.40057000  1.0
  O  O2856  1  0.25214000  0.36124000  0.17559000  1.0
  O  O2857  1  0.27525000  0.52265000  0.08327000  1.0
  O  O2858  1  0.23477000  0.41370000  0.15801000  1.0
  O  O2859  1  0.24673000  0.56320000  0.05637000  1.0
  O  O2860  1  0.22176000  0.59773000  0.11082000  1.0
  O  O2861  1  0.39681000  0.70352000  0.89341000  1.0
  O  O2862  1  0.39671000  0.72946000  0.84285000  1.0
  O  O2863  1  0.42277000  0.65937000  0.88396000  1.0
  O  O2864  1  0.39999000  0.63647000  0.89205000  1.0
  O  O2865  1  0.49940000  0.54336000  0.95797000  1.0
  O  O2866  1  0.47772000  0.52143000  0.96218000  1.0
  O  O2867  1  0.31555000  0.54140000  0.05379000  1.0
  O  O2868  1  0.45249000  0.49604000  0.00801000  1.0
  O  O2869  1  0.26110000  0.61762000  0.08112000  1.0
  O  O2870  1  0.28658000  0.58264000  0.02746000  1.0
  O  O2871  1  0.42227000  0.68508000  0.83410000  1.0
  O  O2872  1  0.34942000  0.65414000  0.90737000  1.0
  O  O2873  1  0.36124000  0.25214000  0.21103000  1.0
  O  O2874  1  0.52265000  0.27525000  0.11883000  1.0
  O  O2875  1  0.41370000  0.23477000  0.19352000  1.0
  O  O2876  1  0.56320000  0.24673000  0.13370000  1.0
  O  O2877  1  0.59773000  0.22176000  0.06969000  1.0
  O  O2878  1  0.70352000  0.39681000  0.00626000  1.0
  O  O2879  1  0.72947000  0.39670000  0.03098000  1.0
  O  O2880  1  0.65937000  0.42277000  0.03390000  1.0
  O  O2881  1  0.63646000  0.40000000  0.07149000  1.0
  O  O2882  1  0.54336000  0.49940000  0.99927000  1.0
  O  O2883  1  0.52144000  0.47771000  0.03867000  1.0
  O  O2884  1  0.54139000  0.31556000  0.08926000  1.0
  O  O2885  1  0.49604000  0.45249000  0.04346000  1.0
  O  O2886  1  0.61761000  0.26111000  0.04016000  1.0
  O  O2887  1  0.58265000  0.28657000  0.10332000  1.0
  O  O2888  1  0.68508000  0.42227000  0.05855000  1.0
  O  O2889  1  0.65413000  0.34943000  0.08907000  1.0
  O  O2890  1  0.17559000  0.21103000  0.25214000  1.0
  O  O2891  1  0.08327000  0.11883000  0.27525000  1.0
  O  O2892  1  0.15801000  0.19352000  0.23477000  1.0
  O  O2893  1  0.05637000  0.13370000  0.24673000  1.0
  O  O2894  1  0.11082000  0.06969000  0.22176000  1.0
  O  O2895  1  0.89341000  0.00626000  0.39681000  1.0
  O  O2896  1  0.84286000  0.03098000  0.39670000  1.0
  O  O2897  1  0.88396000  0.03390000  0.42277000  1.0
  O  O2898  1  0.89204000  0.07149000  0.40000000  1.0
  O  O2899  1  0.95797000  0.99927000  0.49940000  1.0
  O  O2900  1  0.96219000  0.03867000  0.47771000  1.0
  O  O2901  1  0.05378000  0.08926000  0.31556000  1.0
  O  O2902  1  0.00801000  0.04346000  0.45249000  1.0
  O  O2903  1  0.08111000  0.04016000  0.26111000  1.0
  O  O2904  1  0.02747000  0.10332000  0.28657000  1.0
  O  O2905  1  0.83410000  0.05855000  0.42227000  1.0
  O  O2906  1  0.90736000  0.08907000  0.34943000  1.0
  O  O2907  1  0.21103000  0.17559000  0.36124000  1.0
  O  O2908  1  0.11883000  0.08327000  0.52265000  1.0
  O  O2909  1  0.19352000  0.15801000  0.41370000  1.0
  O  O2910  1  0.13370000  0.05637000  0.56320000  1.0
  O  O2911  1  0.06969000  0.11082000  0.59773000  1.0
  O  O2912  1  0.00626000  0.89341000  0.70352000  1.0
  O  O2913  1  0.03099000  0.84285000  0.72946000  1.0
  O  O2914  1  0.03390000  0.88396000  0.65937000  1.0
  O  O2915  1  0.07148000  0.89205000  0.63647000  1.0
  O  O2916  1  0.99927000  0.95797000  0.54336000  1.0
  O  O2917  1  0.03868000  0.96218000  0.52143000  1.0
  O  O2918  1  0.08925000  0.05379000  0.54140000  1.0
  O  O2919  1  0.04346000  0.00801000  0.49604000  1.0
  O  O2920  1  0.04015000  0.08112000  0.61762000  1.0
  O  O2921  1  0.10333000  0.02746000  0.58264000  1.0
  O  O2922  1  0.05855000  0.83410000  0.68508000  1.0
  O  O2923  1  0.08906000  0.90737000  0.65414000  1.0
  O  O2924  1  0.21103000  0.36124000  0.25214000  1.0
  O  O2925  1  0.11883000  0.52265000  0.27525000  1.0
  O  O2926  1  0.19352000  0.41370000  0.23477000  1.0
  O  O2927  1  0.13370000  0.56320000  0.24673000  1.0
  O  O2928  1  0.06969000  0.59773000  0.22176000  1.0
  O  O2929  1  0.00626000  0.70352000  0.39681000  1.0
  O  O2930  1  0.03099000  0.72946000  0.39670000  1.0
  O  O2931  1  0.03390000  0.65937000  0.42277000  1.0
  O  O2932  1  0.07148000  0.63647000  0.40000000  1.0
  O  O2933  1  0.99927000  0.54336000  0.49940000  1.0
  O  O2934  1  0.03868000  0.52143000  0.47771000  1.0
  O  O2935  1  0.08925000  0.54140000  0.31556000  1.0
  O  O2936  1  0.04346000  0.49604000  0.45249000  1.0
  O  O2937  1  0.04015000  0.61762000  0.26111000  1.0
  O  O2938  1  0.10333000  0.58264000  0.28657000  1.0
  O  O2939  1  0.05855000  0.68508000  0.42227000  1.0
  O  O2940  1  0.08906000  0.65414000  0.34943000  1.0
  O  O2941  1  0.17559000  0.25214000  0.36124000  1.0
  O  O2942  1  0.08327000  0.27525000  0.52265000  1.0
  O  O2943  1  0.15801000  0.23477000  0.41370000  1.0
  O  O2944  1  0.05637000  0.24673000  0.56320000  1.0
  O  O2945  1  0.11082000  0.22176000  0.59773000  1.0
  O  O2946  1  0.89341000  0.39681000  0.70352000  1.0
  O  O2947  1  0.84286000  0.39670000  0.72946000  1.0
  O  O2948  1  0.88396000  0.42277000  0.65937000  1.0
  O  O2949  1  0.89204000  0.40000000  0.63647000  1.0
  O  O2950  1  0.95797000  0.49940000  0.54336000  1.0
  O  O2951  1  0.96219000  0.47771000  0.52143000  1.0
  O  O2952  1  0.05378000  0.31556000  0.54140000  1.0
  O  O2953  1  0.00801000  0.45249000  0.49604000  1.0
  O  O2954  1  0.08111000  0.26111000  0.61762000  1.0
  O  O2955  1  0.02747000  0.28657000  0.58264000  1.0
  O  O2956  1  0.83410000  0.42227000  0.68508000  1.0
  O  O2957  1  0.90736000  0.34943000  0.65414000  1.0
  O  O2958  1  0.36124000  0.21103000  0.17559000  1.0
  O  O2959  1  0.52265000  0.11883000  0.08327000  1.0
  O  O2960  1  0.41370000  0.19352000  0.15801000  1.0
  O  O2961  1  0.56320000  0.13370000  0.05637000  1.0
  O  O2962  1  0.59773000  0.06969000  0.11082000  1.0
  O  O2963  1  0.70352000  0.00626000  0.89341000  1.0
  O  O2964  1  0.72947000  0.03098000  0.84285000  1.0
  O  O2965  1  0.65937000  0.03390000  0.88396000  1.0
  O  O2966  1  0.63646000  0.07149000  0.89205000  1.0
  O  O2967  1  0.54336000  0.99927000  0.95797000  1.0
  O  O2968  1  0.52144000  0.03867000  0.96218000  1.0
  O  O2969  1  0.54139000  0.08926000  0.05379000  1.0
  O  O2970  1  0.49604000  0.04346000  0.00801000  1.0
  O  O2971  1  0.61761000  0.04016000  0.08112000  1.0
  O  O2972  1  0.58265000  0.10332000  0.02746000  1.0
  O  O2973  1  0.68508000  0.05855000  0.83410000  1.0
  O  O2974  1  0.65413000  0.08907000  0.90737000  1.0
  O  O2975  1  0.25214000  0.17559000  0.21103000  1.0
  O  O2976  1  0.27525000  0.08327000  0.11883000  1.0
  O  O2977  1  0.23477000  0.15801000  0.19352000  1.0
  O  O2978  1  0.24673000  0.05637000  0.13370000  1.0
  O  O2979  1  0.22176000  0.11082000  0.06969000  1.0
  O  O2980  1  0.39681000  0.89341000  0.00626000  1.0
  O  O2981  1  0.39671000  0.84285000  0.03098000  1.0
  O  O2982  1  0.42277000  0.88396000  0.03390000  1.0
  O  O2983  1  0.39999000  0.89205000  0.07149000  1.0
  O  O2984  1  0.49940000  0.95797000  0.99927000  1.0
  O  O2985  1  0.47772000  0.96218000  0.03867000  1.0
  O  O2986  1  0.31555000  0.05379000  0.08926000  1.0
  O  O2987  1  0.45249000  0.00801000  0.04346000  1.0
  O  O2988  1  0.26110000  0.08112000  0.04016000  1.0
  O  O2989  1  0.28658000  0.02746000  0.10332000  1.0
  O  O2990  1  0.42227000  0.83410000  0.05855000  1.0
  O  O2991  1  0.34942000  0.90737000  0.08907000  1.0
  O  O2992  1  0.17559000  0.36124000  0.21103000  1.0
  O  O2993  1  0.08327000  0.52265000  0.11883000  1.0
  O  O2994  1  0.15801000  0.41370000  0.19352000  1.0
  O  O2995  1  0.05637000  0.56320000  0.13370000  1.0
  O  O2996  1  0.11082000  0.59773000  0.06969000  1.0
  O  O2997  1  0.89341000  0.70352000  0.00626000  1.0
  O  O2998  1  0.84286000  0.72946000  0.03098000  1.0
  O  O2999  1  0.88396000  0.65937000  0.03390000  1.0
  O  O3000  1  0.89204000  0.63647000  0.07149000  1.0
  O  O3001  1  0.95797000  0.54336000  0.99927000  1.0
  O  O3002  1  0.96219000  0.52143000  0.03867000  1.0
  O  O3003  1  0.05378000  0.54140000  0.08926000  1.0
  O  O3004  1  0.00801000  0.49604000  0.04346000  1.0
  O  O3005  1  0.08111000  0.61762000  0.04016000  1.0
  O  O3006  1  0.02747000  0.58264000  0.10332000  1.0
  O  O3007  1  0.83410000  0.68508000  0.05855000  1.0
  O  O3008  1  0.90736000  0.65414000  0.08907000  1.0
  O  O3009  1  0.21103000  0.25214000  0.17559000  1.0
  O  O3010  1  0.11883000  0.27525000  0.08327000  1.0
  O  O3011  1  0.19352000  0.23477000  0.15801000  1.0
  O  O3012  1  0.13370000  0.24673000  0.05637000  1.0
  O  O3013  1  0.06969000  0.22176000  0.11082000  1.0
  O  O3014  1  0.00626000  0.39681000  0.89341000  1.0
  O  O3015  1  0.03099000  0.39670000  0.84285000  1.0
  O  O3016  1  0.03390000  0.42277000  0.88396000  1.0
  O  O3017  1  0.07148000  0.40000000  0.89205000  1.0
  O  O3018  1  0.99927000  0.49940000  0.95797000  1.0
  O  O3019  1  0.03868000  0.47771000  0.96218000  1.0
  O  O3020  1  0.08925000  0.31556000  0.05379000  1.0
  O  O3021  1  0.04346000  0.45249000  0.00801000  1.0
  O  O3022  1  0.04015000  0.26111000  0.08112000  1.0
  O  O3023  1  0.10333000  0.28657000  0.02746000  1.0
  O  O3024  1  0.05855000  0.42227000  0.83410000  1.0
  O  O3025  1  0.08906000  0.34943000  0.90737000  1.0
  O  O3026  1  0.25214000  0.21103000  0.36124000  1.0
  O  O3027  1  0.27525000  0.11883000  0.52265000  1.0
  O  O3028  1  0.23477000  0.19352000  0.41370000  1.0
  O  O3029  1  0.24673000  0.13370000  0.56320000  1.0
  O  O3030  1  0.22176000  0.06969000  0.59773000  1.0
  O  O3031  1  0.39681000  0.00626000  0.70352000  1.0
  O  O3032  1  0.39671000  0.03098000  0.72946000  1.0
  O  O3033  1  0.42277000  0.03390000  0.65937000  1.0
  O  O3034  1  0.39999000  0.07149000  0.63647000  1.0
  O  O3035  1  0.49940000  0.99927000  0.54336000  1.0
  O  O3036  1  0.47772000  0.03867000  0.52143000  1.0
  O  O3037  1  0.31555000  0.08926000  0.54140000  1.0
  O  O3038  1  0.45249000  0.04346000  0.49604000  1.0
  O  O3039  1  0.26110000  0.04016000  0.61762000  1.0
  O  O3040  1  0.28658000  0.10332000  0.58264000  1.0
  O  O3041  1  0.42227000  0.05855000  0.68508000  1.0
  O  O3042  1  0.34942000  0.08907000  0.65414000  1.0
  O  O3043  1  0.36124000  0.17559000  0.25214000  1.0
  O  O3044  1  0.52265000  0.08327000  0.27525000  1.0
  O  O3045  1  0.41370000  0.15801000  0.23477000  1.0
  O  O3046  1  0.56320000  0.05637000  0.24673000  1.0
  O  O3047  1  0.59773000  0.11082000  0.22176000  1.0
  O  O3048  1  0.70352000  0.89341000  0.39681000  1.0
  O  O3049  1  0.72947000  0.84285000  0.39670000  1.0
  O  O3050  1  0.65937000  0.88396000  0.42277000  1.0
  O  O3051  1  0.63646000  0.89205000  0.40000000  1.0
  O  O3052  1  0.54336000  0.95797000  0.49940000  1.0
  O  O3053  1  0.52144000  0.96218000  0.47771000  1.0
  O  O3054  1  0.54139000  0.05379000  0.31556000  1.0
  O  O3055  1  0.49604000  0.00801000  0.45249000  1.0
  O  O3056  1  0.61761000  0.08112000  0.26111000  1.0
  O  O3057  1  0.58265000  0.02746000  0.28657000  1.0
  O  O3058  1  0.68508000  0.83410000  0.42227000  1.0
  O  O3059  1  0.65413000  0.90737000  0.34943000  1.0
  O  O3060  1  0.36124000  0.25214000  0.17559000  1.0
  O  O3061  1  0.52265000  0.27525000  0.08327000  1.0
  O  O3062  1  0.41370000  0.23477000  0.15801000  1.0
  O  O3063  1  0.56320000  0.24673000  0.05637000  1.0
  O  O3064  1  0.59773000  0.22176000  0.11082000  1.0
  O  O3065  1  0.70352000  0.39681000  0.89341000  1.0
  O  O3066  1  0.72947000  0.39670000  0.84285000  1.0
  O  O3067  1  0.65937000  0.42277000  0.88396000  1.0
  O  O3068  1  0.63646000  0.40000000  0.89205000  1.0
  O  O3069  1  0.54336000  0.49940000  0.95797000  1.0
  O  O3070  1  0.52144000  0.47771000  0.96218000  1.0
  O  O3071  1  0.54139000  0.31556000  0.05379000  1.0
  O  O3072  1  0.49604000  0.45249000  0.00801000  1.0
  O  O3073  1  0.61761000  0.26111000  0.08112000  1.0
  O  O3074  1  0.58265000  0.28657000  0.02746000  1.0
  O  O3075  1  0.68508000  0.42227000  0.83410000  1.0
  O  O3076  1  0.65413000  0.34943000  0.90737000  1.0
  O  O3077  1  0.25214000  0.36124000  0.21103000  1.0
  O  O3078  1  0.27525000  0.52265000  0.11883000  1.0
  O  O3079  1  0.23477000  0.41370000  0.19352000  1.0
  O  O3080  1  0.24673000  0.56320000  0.13370000  1.0
  O  O3081  1  0.22176000  0.59773000  0.06969000  1.0
  O  O3082  1  0.39681000  0.70352000  0.00626000  1.0
  O  O3083  1  0.39671000  0.72946000  0.03098000  1.0
  O  O3084  1  0.42277000  0.65937000  0.03390000  1.0
  O  O3085  1  0.39999000  0.63647000  0.07149000  1.0
  O  O3086  1  0.49940000  0.54336000  0.99927000  1.0
  O  O3087  1  0.47772000  0.52143000  0.03867000  1.0
  O  O3088  1  0.31555000  0.54140000  0.08926000  1.0
  O  O3089  1  0.45249000  0.49604000  0.04346000  1.0
  O  O3090  1  0.26110000  0.61762000  0.04016000  1.0
  O  O3091  1  0.28658000  0.58264000  0.10332000  1.0
  O  O3092  1  0.42227000  0.68508000  0.05855000  1.0
  O  O3093  1  0.34942000  0.65414000  0.08907000  1.0
  O  O3094  1  0.21103000  0.17559000  0.25214000  1.0
  O  O3095  1  0.11883000  0.08327000  0.27525000  1.0
  O  O3096  1  0.19352000  0.15801000  0.23477000  1.0
  O  O3097  1  0.13370000  0.05637000  0.24673000  1.0
  O  O3098  1  0.06969000  0.11082000  0.22176000  1.0
  O  O3099  1  0.00626000  0.89341000  0.39681000  1.0
  O  O3100  1  0.03099000  0.84285000  0.39670000  1.0
  O  O3101  1  0.03390000  0.88396000  0.42277000  1.0
  O  O3102  1  0.07148000  0.89205000  0.40000000  1.0
  O  O3103  1  0.99927000  0.95797000  0.49940000  1.0
  O  O3104  1  0.03868000  0.96218000  0.47771000  1.0
  O  O3105  1  0.08925000  0.05379000  0.31556000  1.0
  O  O3106  1  0.04346000  0.00801000  0.45249000  1.0
  O  O3107  1  0.04015000  0.08112000  0.26111000  1.0
  O  O3108  1  0.10333000  0.02746000  0.28657000  1.0
  O  O3109  1  0.05855000  0.83410000  0.42227000  1.0
  O  O3110  1  0.08906000  0.90737000  0.34943000  1.0
  O  O3111  1  0.17559000  0.21103000  0.36124000  1.0
  O  O3112  1  0.08327000  0.11883000  0.52265000  1.0
  O  O3113  1  0.15801000  0.19352000  0.41370000  1.0
  O  O3114  1  0.05637000  0.13370000  0.56320000  1.0
  O  O3115  1  0.11082000  0.06969000  0.59773000  1.0
  O  O3116  1  0.89341000  0.00626000  0.70352000  1.0
  O  O3117  1  0.84286000  0.03098000  0.72946000  1.0
  O  O3118  1  0.88396000  0.03390000  0.65937000  1.0
  O  O3119  1  0.89204000  0.07149000  0.63647000  1.0
  O  O3120  1  0.95797000  0.99927000  0.54336000  1.0
  O  O3121  1  0.96219000  0.03867000  0.52143000  1.0
  O  O3122  1  0.05378000  0.08926000  0.54140000  1.0
  O  O3123  1  0.00801000  0.04346000  0.49604000  1.0
  O  O3124  1  0.08111000  0.04016000  0.61762000  1.0
  O  O3125  1  0.02747000  0.10332000  0.58264000  1.0
  O  O3126  1  0.83410000  0.05855000  0.68508000  1.0
  O  O3127  1  0.90736000  0.08907000  0.65414000  1.0
  O  O3128  1  0.36124000  0.21103000  0.25214000  1.0
  O  O3129  1  0.52265000  0.11883000  0.27525000  1.0
  O  O3130  1  0.41370000  0.19352000  0.23477000  1.0
  O  O3131  1  0.56320000  0.13370000  0.24673000  1.0
  O  O3132  1  0.59773000  0.06969000  0.22176000  1.0
  O  O3133  1  0.70352000  0.00626000  0.39681000  1.0
  O  O3134  1  0.72947000  0.03098000  0.39670000  1.0
  O  O3135  1  0.65937000  0.03390000  0.42277000  1.0
  O  O3136  1  0.63646000  0.07149000  0.40000000  1.0
  O  O3137  1  0.54336000  0.99927000  0.49940000  1.0
  O  O3138  1  0.52144000  0.03867000  0.47771000  1.0
  O  O3139  1  0.54139000  0.08926000  0.31556000  1.0
  O  O3140  1  0.49604000  0.04346000  0.45249000  1.0
  O  O3141  1  0.61761000  0.04016000  0.26111000  1.0
  O  O3142  1  0.58265000  0.10332000  0.28657000  1.0
  O  O3143  1  0.68508000  0.05855000  0.42227000  1.0
  O  O3144  1  0.65413000  0.08907000  0.34943000  1.0
  O  O3145  1  0.25214000  0.17559000  0.36124000  1.0
  O  O3146  1  0.27525000  0.08327000  0.52265000  1.0
  O  O3147  1  0.23477000  0.15801000  0.41370000  1.0
  O  O3148  1  0.24673000  0.05637000  0.56320000  1.0
  O  O3149  1  0.22176000  0.11082000  0.59773000  1.0
  O  O3150  1  0.39681000  0.89341000  0.70352000  1.0
  O  O3151  1  0.39671000  0.84285000  0.72946000  1.0
  O  O3152  1  0.42277000  0.88396000  0.65937000  1.0
  O  O3153  1  0.39999000  0.89205000  0.63647000  1.0
  O  O3154  1  0.49940000  0.95797000  0.54336000  1.0
  O  O3155  1  0.47772000  0.96218000  0.52143000  1.0
  O  O3156  1  0.31555000  0.05379000  0.54140000  1.0
  O  O3157  1  0.45249000  0.00801000  0.49604000  1.0
  O  O3158  1  0.26110000  0.08112000  0.61762000  1.0
  O  O3159  1  0.28658000  0.02746000  0.58264000  1.0
  O  O3160  1  0.42227000  0.83410000  0.68508000  1.0
  O  O3161  1  0.34942000  0.90737000  0.65414000  1.0
  O  O3162  1  0.21103000  0.36124000  0.17559000  1.0
  O  O3163  1  0.11883000  0.52265000  0.08327000  1.0
  O  O3164  1  0.19352000  0.41370000  0.15801000  1.0
  O  O3165  1  0.13370000  0.56320000  0.05637000  1.0
  O  O3166  1  0.06969000  0.59773000  0.11082000  1.0
  O  O3167  1  0.00626000  0.70352000  0.89341000  1.0
  O  O3168  1  0.03099000  0.72946000  0.84285000  1.0
  O  O3169  1  0.03390000  0.65937000  0.88396000  1.0
  O  O3170  1  0.07148000  0.63647000  0.89205000  1.0
  O  O3171  1  0.99927000  0.54336000  0.95797000  1.0
  O  O3172  1  0.03868000  0.52143000  0.96218000  1.0
  O  O3173  1  0.08925000  0.54140000  0.05379000  1.0
  O  O3174  1  0.04346000  0.49604000  0.00801000  1.0
  O  O3175  1  0.04015000  0.61762000  0.08112000  1.0
  O  O3176  1  0.10333000  0.58264000  0.02746000  1.0
  O  O3177  1  0.05855000  0.68508000  0.83410000  1.0
  O  O3178  1  0.08906000  0.65414000  0.90737000  1.0
  O  O3179  1  0.17559000  0.25214000  0.21103000  1.0
  O  O3180  1  0.08327000  0.27525000  0.11883000  1.0
  O  O3181  1  0.15801000  0.23477000  0.19352000  1.0
  O  O3182  1  0.05637000  0.24673000  0.13370000  1.0
  O  O3183  1  0.11082000  0.22176000  0.06969000  1.0
  O  O3184  1  0.89341000  0.39681000  0.00626000  1.0
  O  O3185  1  0.84286000  0.39670000  0.03098000  1.0
  O  O3186  1  0.88396000  0.42277000  0.03390000  1.0
  O  O3187  1  0.89204000  0.40000000  0.07149000  1.0
  O  O3188  1  0.95797000  0.49940000  0.99927000  1.0
  O  O3189  1  0.96219000  0.47771000  0.03867000  1.0
  O  O3190  1  0.05378000  0.31556000  0.08926000  1.0
  O  O3191  1  0.00801000  0.45249000  0.04346000  1.0
  O  O3192  1  0.08111000  0.26111000  0.04016000  1.0
  O  O3193  1  0.02747000  0.28657000  0.10332000  1.0
  O  O3194  1  0.83410000  0.42227000  0.05855000  1.0
  O  O3195  1  0.90736000  0.34943000  0.08907000  1.0
  O  O3196  1  0.36124000  0.17559000  0.21103000  1.0
  O  O3197  1  0.52265000  0.08327000  0.11883000  1.0
  O  O3198  1  0.41370000  0.15801000  0.19352000  1.0
  O  O3199  1  0.56320000  0.05637000  0.13370000  1.0
  O  O3200  1  0.59773000  0.11082000  0.06969000  1.0
  O  O3201  1  0.70352000  0.89341000  0.00626000  1.0
  O  O3202  1  0.72947000  0.84285000  0.03098000  1.0
  O  O3203  1  0.65937000  0.88396000  0.03390000  1.0
  O  O3204  1  0.63646000  0.89205000  0.07149000  1.0
  O  O3205  1  0.54336000  0.95797000  0.99927000  1.0
  O  O3206  1  0.52144000  0.96218000  0.03867000  1.0
  O  O3207  1  0.54139000  0.05379000  0.08926000  1.0
  O  O3208  1  0.49604000  0.00801000  0.04346000  1.0
  O  O3209  1  0.61761000  0.08112000  0.04016000  1.0
  O  O3210  1  0.58265000  0.02746000  0.10332000  1.0
  O  O3211  1  0.68508000  0.83410000  0.05855000  1.0
  O  O3212  1  0.65413000  0.90737000  0.08907000  1.0
  O  O3213  1  0.25214000  0.21103000  0.17559000  1.0
  O  O3214  1  0.27525000  0.11883000  0.08327000  1.0
  O  O3215  1  0.23477000  0.19352000  0.15801000  1.0
  O  O3216  1  0.24673000  0.13370000  0.05637000  1.0
  O  O3217  1  0.22176000  0.06969000  0.11082000  1.0
  O  O3218  1  0.39681000  0.00626000  0.89341000  1.0
  O  O3219  1  0.39671000  0.03098000  0.84285000  1.0
  O  O3220  1  0.42277000  0.03390000  0.88396000  1.0
  O  O3221  1  0.39999000  0.07149000  0.89205000  1.0
  O  O3222  1  0.49940000  0.99927000  0.95797000  1.0
  O  O3223  1  0.47772000  0.03867000  0.96218000  1.0
  O  O3224  1  0.31555000  0.08926000  0.05379000  1.0
  O  O3225  1  0.45249000  0.04346000  0.00801000  1.0
  O  O3226  1  0.26110000  0.04016000  0.08112000  1.0
  O  O3227  1  0.28658000  0.10332000  0.02746000  1.0
  O  O3228  1  0.42227000  0.05855000  0.83410000  1.0
  O  O3229  1  0.34942000  0.08907000  0.90737000  1.0
  O  O3230  1  0.21103000  0.25214000  0.36124000  1.0
  O  O3231  1  0.11883000  0.27525000  0.52265000  1.0
  O  O3232  1  0.19352000  0.23477000  0.41370000  1.0
  O  O3233  1  0.13370000  0.24673000  0.56320000  1.0
  O  O3234  1  0.06969000  0.22176000  0.59773000  1.0
  O  O3235  1  0.00626000  0.39681000  0.70352000  1.0
  O  O3236  1  0.03099000  0.39670000  0.72946000  1.0
  O  O3237  1  0.03390000  0.42277000  0.65937000  1.0
  O  O3238  1  0.07148000  0.40000000  0.63647000  1.0
  O  O3239  1  0.99927000  0.49940000  0.54336000  1.0
  O  O3240  1  0.03868000  0.47771000  0.52143000  1.0
  O  O3241  1  0.08925000  0.31556000  0.54140000  1.0
  O  O3242  1  0.04346000  0.45249000  0.49604000  1.0
  O  O3243  1  0.04015000  0.26111000  0.61762000  1.0
  O  O3244  1  0.10333000  0.28657000  0.58264000  1.0
  O  O3245  1  0.05855000  0.42227000  0.68508000  1.0
  O  O3246  1  0.08906000  0.34943000  0.65414000  1.0
  O  O3247  1  0.17559000  0.36124000  0.25214000  1.0
  O  O3248  1  0.08327000  0.52265000  0.27525000  1.0
  O  O3249  1  0.15801000  0.41370000  0.23477000  1.0
  O  O3250  1  0.05637000  0.56320000  0.24673000  1.0
  O  O3251  1  0.11082000  0.59773000  0.22176000  1.0
  O  O3252  1  0.89341000  0.70352000  0.39681000  1.0
  O  O3253  1  0.84286000  0.72946000  0.39670000  1.0
  O  O3254  1  0.88396000  0.65937000  0.42277000  1.0
  O  O3255  1  0.89204000  0.63647000  0.40000000  1.0
  O  O3256  1  0.95797000  0.54336000  0.49940000  1.0
  O  O3257  1  0.96219000  0.52143000  0.47771000  1.0
  O  O3258  1  0.05378000  0.54140000  0.31556000  1.0
  O  O3259  1  0.00801000  0.49604000  0.45249000  1.0
  O  O3260  1  0.08111000  0.61762000  0.26111000  1.0
  O  O3261  1  0.02747000  0.58264000  0.28657000  1.0
  O  O3262  1  0.83410000  0.68508000  0.42227000  1.0
  O  O3263  1  0.90736000  0.65414000  0.34943000  1.0
  O  O3264  1  0.49786000  0.38876000  0.57441000  1.0
  O  O3265  1  0.47475000  0.22735000  0.66673000  1.0
  O  O3266  1  0.51523000  0.33630000  0.59199000  1.0
  O  O3267  1  0.50327000  0.18680000  0.69363000  1.0
  O  O3268  1  0.52824000  0.15227000  0.63918000  1.0
  O  O3269  1  0.35319000  0.04648000  0.85659000  1.0
  O  O3270  1  0.35329000  0.02054000  0.90715000  1.0
  O  O3271  1  0.32723000  0.09063000  0.86604000  1.0
  O  O3272  1  0.35001000  0.11353000  0.85795000  1.0
  O  O3273  1  0.25060000  0.20664000  0.79203000  1.0
  O  O3274  1  0.27228000  0.22857000  0.78782000  1.0
  O  O3275  1  0.43445000  0.20860000  0.69621000  1.0
  O  O3276  1  0.29751000  0.25396000  0.74199000  1.0
  O  O3277  1  0.48890000  0.13238000  0.66888000  1.0
  O  O3278  1  0.46342000  0.16736000  0.72254000  1.0
  O  O3279  1  0.32773000  0.06492000  0.91590000  1.0
  O  O3280  1  0.40058000  0.09586000  0.84263000  1.0
  O  O3281  1  0.38876000  0.49786000  0.53897000  1.0
  O  O3282  1  0.22735000  0.47475000  0.63117000  1.0
  O  O3283  1  0.33630000  0.51523000  0.55648000  1.0
  O  O3284  1  0.18680000  0.50327000  0.61630000  1.0
  O  O3285  1  0.15227000  0.52824000  0.68031000  1.0
  O  O3286  1  0.04648000  0.35319000  0.74374000  1.0
  O  O3287  1  0.02053000  0.35330000  0.71902000  1.0
  O  O3288  1  0.09063000  0.32723000  0.71610000  1.0
  O  O3289  1  0.11354000  0.35000000  0.67851000  1.0
  O  O3290  1  0.20664000  0.25060000  0.75073000  1.0
  O  O3291  1  0.22856000  0.27229000  0.71133000  1.0
  O  O3292  1  0.20861000  0.43444000  0.66074000  1.0
  O  O3293  1  0.25396000  0.29751000  0.70654000  1.0
  O  O3294  1  0.13239000  0.48889000  0.70984000  1.0
  O  O3295  1  0.16735000  0.46343000  0.64668000  1.0
  O  O3296  1  0.06492000  0.32773000  0.69145000  1.0
  O  O3297  1  0.09587000  0.40057000  0.66093000  1.0
  O  O3298  1  0.57441000  0.53897000  0.49786000  1.0
  O  O3299  1  0.66673000  0.63117000  0.47475000  1.0
  O  O3300  1  0.59199000  0.55648000  0.51523000  1.0
  O  O3301  1  0.69363000  0.61630000  0.50327000  1.0
  O  O3302  1  0.63918000  0.68031000  0.52824000  1.0
  O  O3303  1  0.85659000  0.74374000  0.35319000  1.0
  O  O3304  1  0.90714000  0.71902000  0.35330000  1.0
  O  O3305  1  0.86604000  0.71610000  0.32723000  1.0
  O  O3306  1  0.85796000  0.67851000  0.35000000  1.0
  O  O3307  1  0.79203000  0.75073000  0.25060000  1.0
  O  O3308  1  0.78781000  0.71133000  0.27229000  1.0
  O  O3309  1  0.69622000  0.66074000  0.43444000  1.0
  O  O3310  1  0.74199000  0.70654000  0.29751000  1.0
  O  O3311  1  0.66889000  0.70984000  0.48889000  1.0
  O  O3312  1  0.72253000  0.64668000  0.46343000  1.0
  O  O3313  1  0.91590000  0.69145000  0.32773000  1.0
  O  O3314  1  0.84264000  0.66093000  0.40057000  1.0
  O  O3315  1  0.53897000  0.57441000  0.38876000  1.0
  O  O3316  1  0.63117000  0.66673000  0.22735000  1.0
  O  O3317  1  0.55648000  0.59199000  0.33630000  1.0
  O  O3318  1  0.61630000  0.69363000  0.18680000  1.0
  O  O3319  1  0.68031000  0.63918000  0.15227000  1.0
  O  O3320  1  0.74374000  0.85659000  0.04648000  1.0
  O  O3321  1  0.71901000  0.90715000  0.02054000  1.0
  O  O3322  1  0.71610000  0.86604000  0.09063000  1.0
  O  O3323  1  0.67852000  0.85795000  0.11353000  1.0
  O  O3324  1  0.75073000  0.79203000  0.20664000  1.0
  O  O3325  1  0.71132000  0.78782000  0.22857000  1.0
  O  O3326  1  0.66075000  0.69621000  0.20860000  1.0
  O  O3327  1  0.70654000  0.74199000  0.25396000  1.0
  O  O3328  1  0.70985000  0.66888000  0.13238000  1.0
  O  O3329  1  0.64667000  0.72254000  0.16736000  1.0
  O  O3330  1  0.69145000  0.91590000  0.06492000  1.0
  O  O3331  1  0.66094000  0.84263000  0.09586000  1.0
  O  O3332  1  0.53897000  0.38876000  0.49786000  1.0
  O  O3333  1  0.63117000  0.22735000  0.47475000  1.0
  O  O3334  1  0.55648000  0.33630000  0.51523000  1.0
  O  O3335  1  0.61630000  0.18680000  0.50327000  1.0
  O  O3336  1  0.68031000  0.15227000  0.52824000  1.0
  O  O3337  1  0.74374000  0.04648000  0.35319000  1.0
  O  O3338  1  0.71901000  0.02054000  0.35330000  1.0
  O  O3339  1  0.71610000  0.09063000  0.32723000  1.0
  O  O3340  1  0.67852000  0.11353000  0.35000000  1.0
  O  O3341  1  0.75073000  0.20664000  0.25060000  1.0
  O  O3342  1  0.71132000  0.22857000  0.27229000  1.0
  O  O3343  1  0.66075000  0.20860000  0.43444000  1.0
  O  O3344  1  0.70654000  0.25396000  0.29751000  1.0
  O  O3345  1  0.70985000  0.13238000  0.48889000  1.0
  O  O3346  1  0.64667000  0.16736000  0.46343000  1.0
  O  O3347  1  0.69145000  0.06492000  0.32773000  1.0
  O  O3348  1  0.66094000  0.09586000  0.40057000  1.0
  O  O3349  1  0.57441000  0.49786000  0.38876000  1.0
  O  O3350  1  0.66673000  0.47475000  0.22735000  1.0
  O  O3351  1  0.59199000  0.51523000  0.33630000  1.0
  O  O3352  1  0.69363000  0.50327000  0.18680000  1.0
  O  O3353  1  0.63918000  0.52824000  0.15227000  1.0
  O  O3354  1  0.85659000  0.35319000  0.04648000  1.0
  O  O3355  1  0.90714000  0.35330000  0.02054000  1.0
  O  O3356  1  0.86604000  0.32723000  0.09063000  1.0
  O  O3357  1  0.85796000  0.35000000  0.11353000  1.0
  O  O3358  1  0.79203000  0.25060000  0.20664000  1.0
  O  O3359  1  0.78781000  0.27229000  0.22857000  1.0
  O  O3360  1  0.69622000  0.43444000  0.20860000  1.0
  O  O3361  1  0.74199000  0.29751000  0.25396000  1.0
  O  O3362  1  0.66889000  0.48889000  0.13238000  1.0
  O  O3363  1  0.72253000  0.46343000  0.16736000  1.0
  O  O3364  1  0.91590000  0.32773000  0.06492000  1.0
  O  O3365  1  0.84264000  0.40057000  0.09586000  1.0
  O  O3366  1  0.38876000  0.53897000  0.57441000  1.0
  O  O3367  1  0.22735000  0.63117000  0.66673000  1.0
  O  O3368  1  0.33630000  0.55648000  0.59199000  1.0
  O  O3369  1  0.18680000  0.61630000  0.69363000  1.0
  O  O3370  1  0.15227000  0.68031000  0.63918000  1.0
  O  O3371  1  0.04648000  0.74374000  0.85659000  1.0
  O  O3372  1  0.02053000  0.71902000  0.90715000  1.0
  O  O3373  1  0.09063000  0.71610000  0.86604000  1.0
  O  O3374  1  0.11354000  0.67851000  0.85795000  1.0
  O  O3375  1  0.20664000  0.75073000  0.79203000  1.0
  O  O3376  1  0.22856000  0.71133000  0.78782000  1.0
  O  O3377  1  0.20861000  0.66074000  0.69621000  1.0
  O  O3378  1  0.25396000  0.70654000  0.74199000  1.0
  O  O3379  1  0.13239000  0.70984000  0.66888000  1.0
  O  O3380  1  0.16735000  0.64668000  0.72254000  1.0
  O  O3381  1  0.06492000  0.69145000  0.91590000  1.0
  O  O3382  1  0.09587000  0.66093000  0.84263000  1.0
  O  O3383  1  0.49786000  0.57441000  0.53897000  1.0
  O  O3384  1  0.47475000  0.66673000  0.63117000  1.0
  O  O3385  1  0.51523000  0.59199000  0.55648000  1.0
  O  O3386  1  0.50327000  0.69363000  0.61630000  1.0
  O  O3387  1  0.52824000  0.63918000  0.68031000  1.0
  O  O3388  1  0.35319000  0.85659000  0.74374000  1.0
  O  O3389  1  0.35329000  0.90715000  0.71902000  1.0
  O  O3390  1  0.32723000  0.86604000  0.71610000  1.0
  O  O3391  1  0.35001000  0.85795000  0.67851000  1.0
  O  O3392  1  0.25060000  0.79203000  0.75073000  1.0
  O  O3393  1  0.27228000  0.78782000  0.71133000  1.0
  O  O3394  1  0.43445000  0.69621000  0.66074000  1.0
  O  O3395  1  0.29751000  0.74199000  0.70654000  1.0
  O  O3396  1  0.48890000  0.66888000  0.70984000  1.0
  O  O3397  1  0.46342000  0.72254000  0.64668000  1.0
  O  O3398  1  0.32773000  0.91590000  0.69145000  1.0
  O  O3399  1  0.40058000  0.84263000  0.66093000  1.0
  O  O3400  1  0.57441000  0.38876000  0.53897000  1.0
  O  O3401  1  0.66673000  0.22735000  0.63117000  1.0
  O  O3402  1  0.59199000  0.33630000  0.55648000  1.0
  O  O3403  1  0.69363000  0.18680000  0.61630000  1.0
  O  O3404  1  0.63918000  0.15227000  0.68031000  1.0
  O  O3405  1  0.85659000  0.04648000  0.74374000  1.0
  O  O3406  1  0.90714000  0.02054000  0.71902000  1.0
  O  O3407  1  0.86604000  0.09063000  0.71610000  1.0
  O  O3408  1  0.85796000  0.11353000  0.67851000  1.0
  O  O3409  1  0.79203000  0.20664000  0.75073000  1.0
  O  O3410  1  0.78781000  0.22857000  0.71133000  1.0
  O  O3411  1  0.69622000  0.20860000  0.66074000  1.0
  O  O3412  1  0.74199000  0.25396000  0.70654000  1.0
  O  O3413  1  0.66889000  0.13238000  0.70984000  1.0
  O  O3414  1  0.72253000  0.16736000  0.64668000  1.0
  O  O3415  1  0.91590000  0.06492000  0.69145000  1.0
  O  O3416  1  0.84264000  0.09586000  0.66093000  1.0
  O  O3417  1  0.53897000  0.49786000  0.57441000  1.0
  O  O3418  1  0.63117000  0.47475000  0.66673000  1.0
  O  O3419  1  0.55648000  0.51523000  0.59199000  1.0
  O  O3420  1  0.61630000  0.50327000  0.69363000  1.0
  O  O3421  1  0.68031000  0.52824000  0.63918000  1.0
  O  O3422  1  0.74374000  0.35319000  0.85659000  1.0
  O  O3423  1  0.71901000  0.35330000  0.90715000  1.0
  O  O3424  1  0.71610000  0.32723000  0.86604000  1.0
  O  O3425  1  0.67852000  0.35000000  0.85795000  1.0
  O  O3426  1  0.75073000  0.25060000  0.79203000  1.0
  O  O3427  1  0.71132000  0.27229000  0.78782000  1.0
  O  O3428  1  0.66075000  0.43444000  0.69621000  1.0
  O  O3429  1  0.70654000  0.29751000  0.74199000  1.0
  O  O3430  1  0.70985000  0.48889000  0.66888000  1.0
  O  O3431  1  0.64667000  0.46343000  0.72254000  1.0
  O  O3432  1  0.69145000  0.32773000  0.91590000  1.0
  O  O3433  1  0.66094000  0.40057000  0.84263000  1.0
  O  O3434  1  0.49786000  0.53897000  0.38876000  1.0
  O  O3435  1  0.47475000  0.63117000  0.22735000  1.0
  O  O3436  1  0.51523000  0.55648000  0.33630000  1.0
  O  O3437  1  0.50327000  0.61630000  0.18680000  1.0
  O  O3438  1  0.52824000  0.68031000  0.15227000  1.0
  O  O3439  1  0.35319000  0.74374000  0.04648000  1.0
  O  O3440  1  0.35329000  0.71902000  0.02054000  1.0
  O  O3441  1  0.32723000  0.71610000  0.09063000  1.0
  O  O3442  1  0.35001000  0.67851000  0.11353000  1.0
  O  O3443  1  0.25060000  0.75073000  0.20664000  1.0
  O  O3444  1  0.27228000  0.71133000  0.22857000  1.0
  O  O3445  1  0.43445000  0.66074000  0.20860000  1.0
  O  O3446  1  0.29751000  0.70654000  0.25396000  1.0
  O  O3447  1  0.48890000  0.70984000  0.13238000  1.0
  O  O3448  1  0.46342000  0.64668000  0.16736000  1.0
  O  O3449  1  0.32773000  0.69145000  0.06492000  1.0
  O  O3450  1  0.40058000  0.66093000  0.09586000  1.0
  O  O3451  1  0.38876000  0.57441000  0.49786000  1.0
  O  O3452  1  0.22735000  0.66673000  0.47475000  1.0
  O  O3453  1  0.33630000  0.59199000  0.51523000  1.0
  O  O3454  1  0.18680000  0.69363000  0.50327000  1.0
  O  O3455  1  0.15227000  0.63918000  0.52824000  1.0
  O  O3456  1  0.04648000  0.85659000  0.35319000  1.0
  O  O3457  1  0.02053000  0.90715000  0.35330000  1.0
  O  O3458  1  0.09063000  0.86604000  0.32723000  1.0
  O  O3459  1  0.11354000  0.85795000  0.35000000  1.0
  O  O3460  1  0.20664000  0.79203000  0.25060000  1.0
  O  O3461  1  0.22856000  0.78782000  0.27229000  1.0
  O  O3462  1  0.20861000  0.69621000  0.43444000  1.0
  O  O3463  1  0.25396000  0.74199000  0.29751000  1.0
  O  O3464  1  0.13239000  0.66888000  0.48889000  1.0
  O  O3465  1  0.16735000  0.72254000  0.46343000  1.0
  O  O3466  1  0.06492000  0.91590000  0.32773000  1.0
  O  O3467  1  0.09587000  0.84263000  0.40057000  1.0
  O  O3468  1  0.06008000  0.37500000  0.87500000  1.0
  O  O3469  1  0.37500000  0.06008000  0.68992000  1.0
  O  O3470  1  0.68992000  0.87500000  0.37500000  1.0
  O  O3471  1  0.87500000  0.68992000  0.06008000  1.0
  O  O3472  1  0.06008000  0.68992000  0.37500000  1.0
  O  O3473  1  0.37500000  0.87500000  0.06008000  1.0
  O  O3474  1  0.68992000  0.06008000  0.87500000  1.0
  O  O3475  1  0.87500000  0.37500000  0.68992000  1.0
  O  O3476  1  0.06008000  0.87500000  0.68992000  1.0
  O  O3477  1  0.37500000  0.68992000  0.87500000  1.0
  O  O3478  1  0.68992000  0.37500000  0.06008000  1.0
  O  O3479  1  0.87500000  0.06008000  0.37500000  1.0
  O  O3480  1  0.68992000  0.37500000  0.87500000  1.0
  O  O3481  1  0.37500000  0.68992000  0.06008000  1.0
  O  O3482  1  0.06008000  0.87500000  0.37500000  1.0
  O  O3483  1  0.87500000  0.06008000  0.68992000  1.0
  O  O3484  1  0.68992000  0.06008000  0.37500000  1.0
  O  O3485  1  0.37500000  0.87500000  0.68992000  1.0
  O  O3486  1  0.06008000  0.68992000  0.87500000  1.0
  O  O3487  1  0.87500000  0.37500000  0.06008000  1.0
  O  O3488  1  0.68992000  0.87500000  0.06008000  1.0
  O  O3489  1  0.37500000  0.06008000  0.87500000  1.0
  O  O3490  1  0.06008000  0.37500000  0.68992000  1.0
  O  O3491  1  0.87500000  0.68992000  0.37500000  1.0
  O  O3492  1  0.25157000  0.25157000  0.74843000  1.0
  O  O3493  1  0.74843000  0.74843000  0.25157000  1.0
  O  O3494  1  0.25157000  0.74843000  0.25157000  1.0
  O  O3495  1  0.74843000  0.25157000  0.74843000  1.0
  O  O3496  1  0.25157000  0.74843000  0.74843000  1.0
  O  O3497  1  0.74843000  0.25157000  0.25157000  1.0
  O  O3498  1  0.49843000  0.49843000  0.00157000  1.0
  O  O3499  1  0.00157000  0.00157000  0.49843000  1.0
  O  O3500  1  0.00157000  0.49843000  0.49843000  1.0
  O  O3501  1  0.49843000  0.00157000  0.00157000  1.0
  O  O3502  1  0.00157000  0.49843000  0.00157000  1.0
  O  O3503  1  0.49843000  0.00157000  0.49843000  1.0
  O  O3504  1  0.17913000  0.48213000  0.66937000  1.0
  O  O3505  1  0.48212000  0.17914000  0.66937000  1.0
  O  O3506  1  0.66936000  0.66937000  0.48213000  1.0
  O  O3507  1  0.66936000  0.66937000  0.17914000  1.0
  O  O3508  1  0.17913000  0.66937000  0.48213000  1.0
  O  O3509  1  0.48212000  0.66937000  0.17914000  1.0
  O  O3510  1  0.66936000  0.17914000  0.66937000  1.0
  O  O3511  1  0.66936000  0.48213000  0.66937000  1.0
  O  O3512  1  0.17913000  0.66937000  0.66937000  1.0
  O  O3513  1  0.48212000  0.66937000  0.66937000  1.0
  O  O3514  1  0.66936000  0.48213000  0.17914000  1.0
  O  O3515  1  0.66936000  0.17914000  0.48213000  1.0
  O  O3516  1  0.26788000  0.57086000  0.08063000  1.0
  O  O3517  1  0.57087000  0.26787000  0.08063000  1.0
  O  O3518  1  0.08064000  0.08063000  0.26787000  1.0
  O  O3519  1  0.08064000  0.08063000  0.57086000  1.0
  O  O3520  1  0.08064000  0.57086000  0.26787000  1.0
  O  O3521  1  0.08064000  0.26787000  0.57086000  1.0
  O  O3522  1  0.57087000  0.08063000  0.08063000  1.0
  O  O3523  1  0.26788000  0.08063000  0.08063000  1.0
  O  O3524  1  0.08064000  0.57086000  0.08063000  1.0
  O  O3525  1  0.08064000  0.26787000  0.08063000  1.0
  O  O3526  1  0.26788000  0.08063000  0.57086000  1.0
  O  O3527  1  0.57087000  0.08063000  0.26787000  1.0
  O  O3528  1  0.36242000  0.54586000  0.54586000  1.0
  O  O3529  1  0.54587000  0.36241000  0.54586000  1.0
  O  O3530  1  0.54587000  0.54586000  0.54586000  1.0
  O  O3531  1  0.54587000  0.54586000  0.36241000  1.0
  O  O3532  1  0.20413000  0.38759000  0.20414000  1.0
  O  O3533  1  0.38758000  0.20414000  0.20414000  1.0
  O  O3534  1  0.20413000  0.20414000  0.20414000  1.0
  O  O3535  1  0.20413000  0.20414000  0.38759000  1.0
